<?xml version="1.0" encoding="UTF-8"?>

<!-- generated on 2025-05-10 12:51:58 by Eclipse SUMO netconvert Version 1.22.0
<netconvertConfiguration xmlns:xsi="http://www.w3.org/2001/XMLSchema-instance" xsi:noNamespaceSchemaLocation="http://sumo.dlr.de/xsd/netconvertConfiguration.xsd">

    <input>
        <osm-files value="F:\PROJECTS\MAHESH_Sister\vanet_project\map.osm"/>
    </input>

    <output>
        <output-file value="F:\PROJECTS\MAHESH_Sister\vanet_project\output_network.net.xml"/>
        <output.street-names value="true"/>
    </output>

    <projection>
        <proj.utm value="true"/>
    </projection>

    <processing>
        <geometry.remove value="true"/>
    </processing>

    <ramp_guessing>
        <ramps.guess value="true"/>
    </ramp_guessing>

    <junctions>
        <junctions.join value="true"/>
    </junctions>

</netconvertConfiguration>
-->

<net version="1.20" junctionCornerDetail="5" limitTurnSpeed="5.50" xmlns:xsi="http://www.w3.org/2001/XMLSchema-instance" xsi:noNamespaceSchemaLocation="http://sumo.dlr.de/xsd/net_file.xsd">

    <location netOffset="-783628.90,-1430011.83" convBoundary="0.00,0.00,1610.98,972.36" origBoundary="77.594157,12.860915,77.783441,13.045272" projParameter="+proj=utm +zone=43 +ellps=WGS84 +datum=WGS84 +units=m +no_defs"/>

    <type id="highway.busway" priority="1" numLanes="1" speed="27.78" allow="bus" oneway="1"/>
    <type id="highway.footway" priority="1" numLanes="1" speed="2.78" allow="pedestrian" oneway="1" width="2.00"/>
    <type id="highway.living_street" priority="2" numLanes="1" speed="2.78" disallow="tram rail_urban rail rail_electric rail_fast ship container cable_car subway aircraft wheelchair scooter drone" oneway="0"/>
    <type id="highway.primary" priority="12" numLanes="2" speed="27.78" disallow="tram rail_urban rail rail_electric rail_fast ship container cable_car subway aircraft wheelchair scooter drone" oneway="0"/>
    <type id="highway.primary_link" priority="7" numLanes="1" speed="22.22" disallow="tram rail_urban rail rail_electric rail_fast ship container cable_car subway aircraft wheelchair scooter drone" oneway="0"/>
    <type id="highway.residential" priority="3" numLanes="1" speed="13.89" disallow="tram rail_urban rail rail_electric rail_fast ship container cable_car subway aircraft wheelchair scooter drone" oneway="0"/>
    <type id="highway.secondary" priority="11" numLanes="1" speed="27.78" disallow="tram rail_urban rail rail_electric rail_fast ship container cable_car subway aircraft wheelchair scooter drone" oneway="0"/>
    <type id="highway.service" priority="1" numLanes="1" speed="5.56" allow="pedestrian delivery bicycle" oneway="0"/>
    <type id="highway.steps" priority="1" numLanes="1" speed="1.39" allow="pedestrian" oneway="1" width="2.00"/>
    <type id="highway.tertiary" priority="10" numLanes="1" speed="22.22" disallow="tram rail_urban rail rail_electric rail_fast ship container cable_car subway aircraft wheelchair scooter drone" oneway="0"/>

    <edge id=":10091779108_0" function="internal">
        <lane id=":10091779108_0_0" index="0" disallow="tram rail_urban rail rail_electric rail_fast ship container cable_car subway aircraft wheelchair scooter drone" speed="3.65" length="4.67" shape="132.66,428.87 131.29,428.42 130.69,427.76 130.86,426.88 131.81,425.79"/>
    </edge>
    <edge id=":10091779109_0" function="internal">
        <lane id=":10091779109_0_0" index="0" disallow="tram rail_urban rail rail_electric rail_fast ship container cable_car subway aircraft wheelchair scooter drone" speed="6.51" length="8.94" shape="174.03,423.16 173.02,420.94 171.54,419.55 169.59,419.02 167.16,419.33"/>
    </edge>
    <edge id=":10091779109_1" function="internal">
        <lane id=":10091779109_1_0" index="0" disallow="tram rail_urban rail rail_electric rail_fast ship container cable_car subway aircraft wheelchair scooter drone" speed="27.78" length="14.19" shape="174.03,423.16 170.50,409.43"/>
    </edge>
    <edge id=":10091779109_2" function="internal">
        <lane id=":10091779109_2_0" index="0" disallow="tram rail_urban rail rail_electric rail_fast ship container cable_car subway aircraft wheelchair scooter drone" speed="3.65" length="1.44" shape="174.03,423.16 174.46,421.79"/>
    </edge>
    <edge id=":10091779109_9" function="internal">
        <lane id=":10091779109_9_0" index="0" disallow="tram rail_urban rail rail_electric rail_fast ship container cable_car subway aircraft wheelchair scooter drone" speed="3.65" length="3.23" shape="174.46,421.79 175.12,421.18 176.00,421.34 177.10,422.27"/>
    </edge>
    <edge id=":10091779109_3" function="internal">
        <lane id=":10091779109_3_0" index="0" disallow="tram rail_urban rail rail_electric rail_fast ship container cable_car subway aircraft wheelchair scooter drone" speed="27.78" length="13.98" shape="173.62,408.73 177.10,422.27"/>
    </edge>
    <edge id=":10091779109_4" function="internal">
        <lane id=":10091779109_4_0" index="0" disallow="tram rail_urban rail rail_electric rail_fast ship container cable_car subway aircraft wheelchair scooter drone" speed="8.10" length="3.79" shape="173.62,408.73 173.91,412.51"/>
    </edge>
    <edge id=":10091779109_5" function="internal">
        <lane id=":10091779109_5_0" index="0" disallow="tram rail_urban rail rail_electric rail_fast ship container cable_car subway aircraft wheelchair scooter drone" speed="3.65" length="1.44" shape="173.62,408.73 173.10,410.07"/>
    </edge>
    <edge id=":10091779109_10" function="internal">
        <lane id=":10091779109_10_0" index="0" disallow="tram rail_urban rail rail_electric rail_fast ship container cable_car subway aircraft wheelchair scooter drone" speed="8.10" length="10.22" shape="173.91,412.51 172.93,415.53 170.68,417.81 167.16,419.33"/>
    </edge>
    <edge id=":10091779109_11" function="internal">
        <lane id=":10091779109_11_0" index="0" disallow="tram rail_urban rail rail_electric rail_fast ship container cable_car subway aircraft wheelchair scooter drone" speed="3.65" length="3.23" shape="173.10,410.07 172.41,410.64 171.54,410.42 170.50,409.43"/>
    </edge>
    <edge id=":10091779109_6" function="internal">
        <lane id=":10091779109_6_0" index="0" disallow="tram rail_urban rail rail_electric rail_fast ship container cable_car subway aircraft wheelchair scooter drone" speed="6.62" length="9.03" shape="166.31,416.25 168.59,415.26 170.04,413.80 170.68,411.85 170.50,409.43"/>
    </edge>
    <edge id=":10091779109_7" function="internal">
        <lane id=":10091779109_7_0" index="0" disallow="tram rail_urban rail rail_electric rail_fast ship container cable_car subway aircraft wheelchair scooter drone" speed="8.00" length="14.05" shape="166.31,416.25 170.12,415.76 173.19,416.60 175.52,418.77 177.10,422.27"/>
    </edge>
    <edge id=":10091779109_8" function="internal">
        <lane id=":10091779109_8_0" index="0" disallow="tram rail_urban rail rail_electric rail_fast ship container cable_car subway aircraft wheelchair scooter drone" speed="3.65" length="4.67" shape="166.31,416.25 167.68,416.70 168.28,417.36 168.10,418.24 167.16,419.33"/>
    </edge>
    <edge id=":10091779110_0" function="internal">
        <lane id=":10091779110_0_0" index="0" disallow="tram rail_urban rail rail_electric rail_fast ship container cable_car subway aircraft wheelchair scooter drone" speed="13.89" length="14.41" shape="115.03,376.18 110.79,362.41"/>
    </edge>
    <edge id=":10091779110_1" function="internal">
        <lane id=":10091779110_1_0" index="0" disallow="tram rail_urban rail rail_electric rail_fast ship container cable_car subway aircraft wheelchair scooter drone" speed="7.90" length="4.12" shape="115.03,376.18 114.41,372.25 114.44,372.12"/>
    </edge>
    <edge id=":10091779110_2" function="internal">
        <lane id=":10091779110_2_0" index="0" disallow="tram rail_urban rail rail_electric rail_fast ship container cable_car subway aircraft wheelchair scooter drone" speed="3.65" length="1.44" shape="115.03,376.18 115.44,374.80"/>
    </edge>
    <edge id=":10091779110_9" function="internal">
        <lane id=":10091779110_9_0" index="0" disallow="tram rail_urban rail rail_electric rail_fast ship container cable_car subway aircraft wheelchair scooter drone" speed="7.90" length="10.31" shape="114.44,372.12 115.23,369.13 117.49,366.82 121.19,365.34"/>
    </edge>
    <edge id=":10091779110_10" function="internal">
        <lane id=":10091779110_10_0" index="0" disallow="tram rail_urban rail rail_electric rail_fast ship container cable_car subway aircraft wheelchair scooter drone" speed="3.65" length="3.23" shape="115.44,374.80 116.09,374.18 116.97,374.33 118.09,375.24"/>
    </edge>
    <edge id=":10091779110_3" function="internal">
        <lane id=":10091779110_3_0" index="0" disallow="tram rail_urban rail rail_electric rail_fast ship container cable_car subway aircraft wheelchair scooter drone" speed="6.38" length="9.04" shape="121.95,368.45 119.63,369.38 118.21,370.82 117.70,372.77 118.09,375.24"/>
    </edge>
    <edge id=":10091779110_4" function="internal">
        <lane id=":10091779110_4_0" index="0" disallow="tram rail_urban rail rail_electric rail_fast ship container cable_car subway aircraft wheelchair scooter drone" speed="8.20" length="14.28" shape="121.95,368.45 118.01,368.86 114.83,367.99 112.43,365.84 110.79,362.41"/>
    </edge>
    <edge id=":10091779110_5" function="internal">
        <lane id=":10091779110_5_0" index="0" disallow="tram rail_urban rail rail_electric rail_fast ship container cable_car subway aircraft wheelchair scooter drone" speed="3.65" length="4.67" shape="121.95,368.45 120.59,367.95 120.01,367.27 120.21,366.40 121.19,365.34"/>
    </edge>
    <edge id=":10091779110_6" function="internal">
        <lane id=":10091779110_6_0" index="0" disallow="tram rail_urban rail rail_electric rail_fast ship container cable_car subway aircraft wheelchair scooter drone" speed="6.75" length="9.34" shape="113.85,361.47 114.91,363.68 116.49,365.07 118.59,365.62 121.19,365.34"/>
    </edge>
    <edge id=":10091779110_7" function="internal">
        <lane id=":10091779110_7_0" index="0" disallow="tram rail_urban rail rail_electric rail_fast ship container cable_car subway aircraft wheelchair scooter drone" speed="13.89" length="14.41" shape="113.85,361.47 118.09,375.24"/>
    </edge>
    <edge id=":10091779110_8" function="internal">
        <lane id=":10091779110_8_0" index="0" disallow="tram rail_urban rail rail_electric rail_fast ship container cable_car subway aircraft wheelchair scooter drone" speed="3.65" length="1.44" shape="113.85,361.47 113.44,362.85"/>
    </edge>
    <edge id=":10091779110_11" function="internal">
        <lane id=":10091779110_11_0" index="0" disallow="tram rail_urban rail rail_electric rail_fast ship container cable_car subway aircraft wheelchair scooter drone" speed="3.65" length="3.23" shape="113.44,362.85 112.79,363.47 111.91,363.32 110.79,362.41"/>
    </edge>
    <edge id=":10091779111_0" function="internal">
        <lane id=":10091779111_0_0" index="0" disallow="tram rail_urban rail rail_electric rail_fast ship container cable_car subway aircraft wheelchair scooter drone" speed="6.65" length="9.21" shape="159.19,365.07 158.18,362.82 156.66,361.41 154.63,360.84 152.08,361.10"/>
    </edge>
    <edge id=":10091779111_1" function="internal">
        <lane id=":10091779111_1_0" index="0" disallow="tram rail_urban rail rail_electric rail_fast ship container cable_car subway aircraft wheelchair scooter drone" speed="27.78" length="14.40" shape="159.19,365.07 155.28,351.21"/>
    </edge>
    <edge id=":10091779111_2" function="internal">
        <lane id=":10091779111_2_0" index="0" disallow="tram rail_urban rail rail_electric rail_fast ship container cable_car subway aircraft wheelchair scooter drone" speed="3.65" length="1.44" shape="159.19,365.07 159.63,363.70"/>
    </edge>
    <edge id=":10091779111_9" function="internal">
        <lane id=":10091779111_9_0" index="0" disallow="tram rail_urban rail rail_electric rail_fast ship container cable_car subway aircraft wheelchair scooter drone" speed="3.65" length="3.23" shape="159.63,363.70 160.30,363.10 161.17,363.27 162.27,364.21"/>
    </edge>
    <edge id=":10091779111_3" function="internal">
        <lane id=":10091779111_3_0" index="0" disallow="tram rail_urban rail rail_electric rail_fast ship container cable_car subway aircraft wheelchair scooter drone" speed="27.78" length="14.40" shape="158.36,350.34 162.27,364.21"/>
    </edge>
    <edge id=":10091779111_4" function="internal">
        <lane id=":10091779111_4_0" index="0" disallow="tram rail_urban rail rail_electric rail_fast ship container cable_car subway aircraft wheelchair scooter drone" speed="7.94" length="4.10" shape="158.36,350.34 158.88,354.25 158.84,354.40"/>
    </edge>
    <edge id=":10091779111_5" function="internal">
        <lane id=":10091779111_5_0" index="0" disallow="tram rail_urban rail rail_electric rail_fast ship container cable_car subway aircraft wheelchair scooter drone" speed="3.65" length="1.44" shape="158.36,350.34 157.92,351.71"/>
    </edge>
    <edge id=":10091779111_10" function="internal">
        <lane id=":10091779111_10_0" index="0" disallow="tram rail_urban rail rail_electric rail_fast ship container cable_car subway aircraft wheelchair scooter drone" speed="7.94" length="10.23" shape="158.84,354.40 158.01,357.35 155.74,359.63 152.08,361.10"/>
    </edge>
    <edge id=":10091779111_11" function="internal">
        <lane id=":10091779111_11_0" index="0" disallow="tram rail_urban rail rail_electric rail_fast ship container cable_car subway aircraft wheelchair scooter drone" speed="3.65" length="3.23" shape="157.92,351.71 157.26,352.32 156.38,352.15 155.28,351.21"/>
    </edge>
    <edge id=":10091779111_6" function="internal">
        <lane id=":10091779111_6_0" index="0" disallow="tram rail_urban rail rail_electric rail_fast ship container cable_car subway aircraft wheelchair scooter drone" speed="6.43" length="9.03" shape="151.32,357.99 153.63,357.07 155.06,355.63 155.61,353.68 155.28,351.21"/>
    </edge>
    <edge id=":10091779111_7" function="internal">
        <lane id=":10091779111_7_0" index="0" disallow="tram rail_urban rail rail_electric rail_fast ship container cable_car subway aircraft wheelchair scooter drone" speed="8.12" length="14.24" shape="151.32,357.99 155.23,357.60 158.36,358.50 160.71,360.70 162.27,364.21"/>
    </edge>
    <edge id=":10091779111_8" function="internal">
        <lane id=":10091779111_8_0" index="0" disallow="tram rail_urban rail rail_electric rail_fast ship container cable_car subway aircraft wheelchair scooter drone" speed="3.65" length="4.67" shape="151.32,357.99 152.68,358.49 153.25,359.17 153.05,360.04 152.08,361.10"/>
    </edge>
    <edge id=":10091779115_0" function="internal">
        <lane id=":10091779115_0_0" index="0" disallow="tram rail_urban rail rail_electric rail_fast ship container cable_car subway aircraft wheelchair scooter drone" speed="3.65" length="4.67" shape="326.00,347.05 325.36,348.34 324.61,348.84 323.77,348.55 322.83,347.46"/>
    </edge>
    <edge id=":10091779116_0" function="internal">
        <lane id=":10091779116_0_0" index="0" disallow="tram rail_urban rail rail_electric rail_fast ship container cable_car subway aircraft wheelchair scooter drone" speed="27.78" length="9.42" shape="475.51,674.69 466.67,677.97"/>
        <lane id=":10091779116_0_1" index="1" disallow="tram rail_urban rail rail_electric rail_fast ship container cable_car subway aircraft wheelchair scooter drone" speed="27.78" length="9.42" shape="474.39,671.69 465.56,674.96"/>
        <lane id=":10091779116_0_2" index="2" disallow="tram rail_urban rail rail_electric rail_fast ship container cable_car subway aircraft wheelchair scooter drone" speed="27.78" length="9.42" shape="473.28,668.69 464.45,671.96"/>
    </edge>
    <edge id=":10091779116_3" function="internal">
        <lane id=":10091779116_3_0" index="0" allow="pedestrian delivery bicycle" speed="6.22" length="7.85" shape="473.28,668.69 470.65,669.46 468.59,669.59 467.10,669.08 466.18,667.93"/>
    </edge>
    <edge id=":10091779116_4" function="internal">
        <lane id=":10091779116_4_0" index="0" allow="pedestrian delivery bicycle" speed="6.82" length="10.42" shape="469.12,666.67 469.87,669.44 469.53,671.75 468.09,673.59 465.56,674.96"/>
        <lane id=":10091779116_4_1" index="1" allow="pedestrian delivery bicycle" speed="6.03" length="7.91" shape="469.12,666.67 469.33,668.15 468.62,669.53 466.99,670.80 464.45,671.96"/>
    </edge>
    <edge id=":10091779116_6" function="internal">
        <lane id=":10091779116_6_0" index="0" allow="pedestrian delivery bicycle" speed="3.65" length="4.67" shape="469.12,666.67 468.86,668.08 468.28,668.77 467.39,668.72 466.18,667.93"/>
    </edge>
    <edge id=":10091787217_0" function="internal">
        <lane id=":10091787217_0_0" index="0" allow="pedestrian delivery bicycle" speed="3.65" length="4.67" shape="411.19,515.24 411.54,513.84 412.16,513.19 413.04,513.30 414.20,514.16"/>
    </edge>
    <edge id=":10091816497_0" function="internal">
        <lane id=":10091816497_0_0" index="0" disallow="tram rail_urban rail rail_electric rail_fast ship container cable_car subway aircraft wheelchair scooter drone" speed="27.78" length="6.20" shape="707.55,397.07 705.47,391.23"/>
        <lane id=":10091816497_0_1" index="1" disallow="tram rail_urban rail rail_electric rail_fast ship container cable_car subway aircraft wheelchair scooter drone" speed="27.78" length="6.20" shape="710.56,396.00 708.48,390.15"/>
    </edge>
    <edge id=":10091816497_2" function="internal">
        <lane id=":10091816497_2_0" index="0" allow="pedestrian delivery bicycle" speed="4.99" length="5.06" shape="712.49,391.94 711.13,392.28 710.02,392.10 709.13,391.39 708.48,390.15"/>
    </edge>
    <edge id=":10153793392_0" function="internal">
        <lane id=":10153793392_0_0" index="0" allow="pedestrian delivery bicycle" speed="5.56" length="9.40" shape="920.07,406.35 916.43,397.68"/>
    </edge>
    <edge id=":10153793392_1" function="internal">
        <lane id=":10153793392_1_0" index="0" allow="pedestrian delivery bicycle" speed="5.56" length="10.17" shape="920.07,406.35 919.39,403.70 919.72,401.43 921.08,399.55 923.46,398.05"/>
    </edge>
    <edge id=":10153793392_2" function="internal">
        <lane id=":10153793392_2_0" index="0" allow="pedestrian delivery bicycle" speed="3.65" length="4.67" shape="920.07,406.35 920.35,404.94 920.93,404.26 921.82,404.32 923.02,405.11"/>
    </edge>
    <edge id=":10153793392_3" function="internal">
        <lane id=":10153793392_3_0" index="0" allow="pedestrian delivery bicycle" speed="5.12" length="5.10" shape="924.77,400.97 923.56,401.73 922.87,402.67 922.69,403.80 923.02,405.11"/>
    </edge>
    <edge id=":10153793392_4" function="internal">
        <lane id=":10153793392_4_0" index="0" allow="pedestrian delivery bicycle" speed="5.56" length="10.28" shape="924.77,400.97 922.05,401.75 919.76,401.46 917.88,400.11 916.43,397.68"/>
    </edge>
    <edge id=":10153793392_5" function="internal">
        <lane id=":10153793392_5_0" index="0" allow="pedestrian delivery bicycle" speed="3.65" length="4.67" shape="924.77,400.97 923.35,400.73 922.65,400.17 922.69,399.28 923.46,398.05"/>
    </edge>
    <edge id=":10153793392_6" function="internal">
        <lane id=":10153793392_6_0" index="0" allow="pedestrian delivery bicycle" speed="5.01" length="5.03" shape="919.38,396.45 920.09,397.63 921.01,398.29 922.13,398.44 923.46,398.05"/>
    </edge>
    <edge id=":10153793392_7" function="internal">
        <lane id=":10153793392_7_0" index="0" allow="pedestrian delivery bicycle" speed="5.56" length="9.40" shape="919.38,396.45 923.02,405.11"/>
    </edge>
    <edge id=":10153793392_8" function="internal">
        <lane id=":10153793392_8_0" index="0" allow="pedestrian delivery bicycle" speed="3.65" length="4.67" shape="919.38,396.45 919.11,397.86 918.52,398.54 917.63,398.48 916.43,397.68"/>
    </edge>
    <edge id=":10153793393_0" function="internal">
        <lane id=":10153793393_0_0" index="0" allow="pedestrian delivery bicycle" speed="4.94" length="5.12" shape="1044.86,350.65 1044.22,349.38 1043.34,348.66 1042.21,348.49 1040.84,348.89"/>
    </edge>
    <edge id=":10153793393_1" function="internal">
        <lane id=":10153793393_1_0" index="0" allow="pedestrian delivery bicycle" speed="5.56" length="9.43" shape="1044.86,350.65 1041.88,341.70"/>
    </edge>
    <edge id=":10153793393_2" function="internal">
        <lane id=":10153793393_2_0" index="0" allow="pedestrian delivery bicycle" speed="3.65" length="4.67" shape="1044.86,350.65 1045.24,349.26 1045.87,348.63 1046.75,348.75 1047.89,349.64"/>
    </edge>
    <edge id=":10153793393_3" function="internal">
        <lane id=":10153793393_3_0" index="0" allow="pedestrian delivery bicycle" speed="5.56" length="9.43" shape="1044.91,340.69 1047.89,349.64"/>
    </edge>
    <edge id=":10153793393_4" function="internal">
        <lane id=":10153793393_4_0" index="0" allow="pedestrian delivery bicycle" speed="5.56" length="10.21" shape="1044.91,340.69 1045.35,343.28 1044.82,345.51 1043.31,347.38 1040.84,348.89"/>
    </edge>
    <edge id=":10153793393_5" function="internal">
        <lane id=":10153793393_5_0" index="0" allow="pedestrian delivery bicycle" speed="3.65" length="4.67" shape="1044.91,340.69 1044.53,342.08 1043.90,342.71 1043.02,342.59 1041.88,341.70"/>
    </edge>
    <edge id=":10153793393_6" function="internal">
        <lane id=":10153793393_6_0" index="0" allow="pedestrian delivery bicycle" speed="5.39" length="5.43" shape="1039.53,345.97 1040.91,345.15 1041.76,344.16 1042.08,343.01 1041.88,341.70"/>
    </edge>
    <edge id=":10153793393_7" function="internal">
        <lane id=":10153793393_7_0" index="0" allow="pedestrian delivery bicycle" speed="5.56" length="10.67" shape="1039.53,345.97 1042.38,345.15 1044.73,345.49 1046.56,346.99 1047.89,349.64"/>
    </edge>
    <edge id=":10153793393_8" function="internal">
        <lane id=":10153793393_8_0" index="0" allow="pedestrian delivery bicycle" speed="3.65" length="4.67" shape="1039.53,345.97 1040.95,346.21 1041.64,346.77 1041.61,347.66 1040.84,348.89"/>
    </edge>
    <edge id=":10153793399_0" function="internal">
        <lane id=":10153793399_0_0" index="0" allow="pedestrian delivery bicycle" speed="5.19" length="5.18" shape="903.55,367.04 902.84,365.88 901.89,365.23 900.70,365.06 899.26,365.39"/>
    </edge>
    <edge id=":10153793399_1" function="internal">
        <lane id=":10153793399_1_0" index="0" allow="pedestrian delivery bicycle" speed="5.56" length="9.41" shape="903.55,367.04 899.91,358.36"/>
    </edge>
    <edge id=":10153793399_2" function="internal">
        <lane id=":10153793399_2_0" index="0" allow="pedestrian delivery bicycle" speed="3.65" length="4.67" shape="903.55,367.04 903.82,365.62 904.41,364.94 905.30,365.00 906.50,365.80"/>
    </edge>
    <edge id=":10153793399_3" function="internal">
        <lane id=":10153793399_3_0" index="0" allow="pedestrian delivery bicycle" speed="5.56" length="9.41" shape="902.86,357.12 906.50,365.80"/>
    </edge>
    <edge id=":10153793399_4" function="internal">
        <lane id=":10153793399_4_0" index="0" allow="pedestrian delivery bicycle" speed="5.56" length="10.39" shape="902.86,357.12 903.58,359.89 903.22,362.20 901.78,364.03 899.26,365.39"/>
    </edge>
    <edge id=":10153793399_5" function="internal">
        <lane id=":10153793399_5_0" index="0" allow="pedestrian delivery bicycle" speed="3.65" length="4.67" shape="902.86,357.12 902.58,358.54 902.00,359.22 901.11,359.16 899.91,358.36"/>
    </edge>
    <edge id=":10153793399_6" function="internal">
        <lane id=":10153793399_6_0" index="0" allow="pedestrian delivery bicycle" speed="4.99" length="5.05" shape="898.16,362.39 899.39,361.72 900.09,360.83 900.26,359.71 899.91,358.36"/>
    </edge>
    <edge id=":10153793399_7" function="internal">
        <lane id=":10153793399_7_0" index="0" allow="pedestrian delivery bicycle" speed="5.56" length="10.18" shape="898.16,362.39 900.92,361.77 903.24,362.14 905.10,363.48 906.50,365.80"/>
    </edge>
    <edge id=":10153793399_8" function="internal">
        <lane id=":10153793399_8_0" index="0" allow="pedestrian delivery bicycle" speed="3.65" length="4.67" shape="898.16,362.39 899.56,362.72 900.21,363.33 900.11,364.22 899.26,365.39"/>
    </edge>
    <edge id=":10153793404_0" function="internal">
        <lane id=":10153793404_0_0" index="0" allow="pedestrian delivery bicycle" speed="3.65" length="4.67" shape="821.09,364.00 821.42,362.59 822.04,361.94 822.93,362.04 824.09,362.89"/>
    </edge>
    <edge id=":10153812607_0" function="internal">
        <lane id=":10153812607_0_0" index="0" allow="pedestrian delivery bicycle" speed="5.56" length="5.88" shape="916.65,188.15 914.87,187.74 913.39,187.79 912.23,188.31 911.38,189.30"/>
    </edge>
    <edge id=":10153812607_1" function="internal">
        <lane id=":10153812607_1_0" index="0" allow="pedestrian delivery bicycle" speed="5.56" length="11.18" shape="916.65,188.15 913.83,186.74 912.33,184.81 912.17,182.38 913.32,179.44"/>
    </edge>
    <edge id=":10153812607_2" function="internal">
        <lane id=":10153812607_2_0" index="0" allow="pedestrian delivery bicycle" speed="3.65" length="4.67" shape="916.65,188.15 915.76,187.02 915.64,186.13 916.27,185.50 917.66,185.12"/>
    </edge>
    <edge id=":10153812607_3" function="internal">
        <lane id=":10153812607_3_0" index="0" allow="pedestrian delivery bicycle" speed="4.86" length="5.25" shape="916.10,181.03 915.56,182.41 915.64,183.55 916.34,184.45 917.66,185.12"/>
    </edge>
    <edge id=":10153812607_4" function="internal">
        <lane id=":10153812607_4_0" index="0" allow="pedestrian delivery bicycle" speed="5.56" length="9.52" shape="916.10,181.03 911.38,189.30"/>
    </edge>
    <edge id=":10153812607_5" function="internal">
        <lane id=":10153812607_5_0" index="0" allow="pedestrian delivery bicycle" speed="3.65" length="4.67" shape="916.10,181.03 914.81,181.68 913.92,181.63 913.42,180.88 913.32,179.44"/>
    </edge>
    <edge id=":10153812607_6" function="internal">
        <lane id=":10153812607_6_0" index="0" allow="pedestrian delivery bicycle" speed="5.56" length="9.52" shape="908.60,187.71 913.32,179.44"/>
    </edge>
    <edge id=":10153812607_7" function="internal">
        <lane id=":10153812607_7_0" index="0" allow="pedestrian delivery bicycle" speed="5.56" length="10.32" shape="908.60,187.71 910.18,185.78 912.22,184.70 914.71,184.48 917.66,185.12"/>
    </edge>
    <edge id=":10153812607_8" function="internal">
        <lane id=":10153812607_8_0" index="0" allow="pedestrian delivery bicycle" speed="3.65" length="4.67" shape="908.60,187.71 909.89,187.07 910.78,187.12 911.28,187.86 911.38,189.30"/>
    </edge>
    <edge id=":10153812609_0" function="internal">
        <lane id=":10153812609_0_0" index="0" allow="pedestrian delivery bicycle" speed="5.56" length="9.40" shape="1043.56,214.71 1041.50,223.88"/>
    </edge>
    <edge id=":10153812609_1" function="internal">
        <lane id=":10153812609_1_0" index="0" allow="pedestrian delivery bicycle" speed="5.56" length="10.16" shape="1043.56,214.71 1042.57,217.30 1040.99,218.95 1038.80,219.68 1036.01,219.48"/>
    </edge>
    <edge id=":10153812609_2" function="internal">
        <lane id=":10153812609_2_0" index="0" allow="pedestrian delivery bicycle" speed="3.65" length="4.67" shape="1043.56,214.71 1042.52,215.71 1041.65,215.92 1040.96,215.35 1040.44,214.01"/>
    </edge>
    <edge id=":10153812609_3" function="internal">
        <lane id=":10153812609_3_0" index="0" allow="pedestrian delivery bicycle" speed="5.07" length="5.04" shape="1036.68,216.36 1038.07,216.46 1039.16,216.10 1039.95,215.28 1040.44,214.01"/>
    </edge>
    <edge id=":10153812609_4" function="internal">
        <lane id=":10153812609_4_0" index="0" allow="pedestrian delivery bicycle" speed="5.56" length="10.21" shape="1036.68,216.36 1039.31,217.33 1040.99,218.90 1041.72,221.09 1041.50,223.88"/>
    </edge>
    <edge id=":10153812609_5" function="internal">
        <lane id=":10153812609_5_0" index="0" allow="pedestrian delivery bicycle" speed="3.65" length="4.67" shape="1036.68,216.36 1037.69,217.39 1037.91,218.26 1037.35,218.95 1036.01,219.48"/>
    </edge>
    <edge id=":10153812609_6" function="internal">
        <lane id=":10153812609_6_0" index="0" allow="pedestrian delivery bicycle" speed="5.03" length="5.01" shape="1038.37,223.18 1038.48,221.81 1038.13,220.73 1037.30,219.96 1036.01,219.48"/>
    </edge>
    <edge id=":10153812609_7" function="internal">
        <lane id=":10153812609_7_0" index="0" allow="pedestrian delivery bicycle" speed="5.56" length="9.40" shape="1038.37,223.18 1040.44,214.01"/>
    </edge>
    <edge id=":10153812609_8" function="internal">
        <lane id=":10153812609_8_0" index="0" allow="pedestrian delivery bicycle" speed="3.65" length="4.67" shape="1038.37,223.18 1039.42,222.18 1040.29,221.97 1040.98,222.54 1041.50,223.88"/>
    </edge>
    <edge id=":10153812611_0" function="internal">
        <lane id=":10153812611_0_0" index="0" allow="pedestrian delivery bicycle" speed="3.65" length="4.67" shape="1010.79,159.23 1011.82,158.21 1012.68,157.98 1013.38,158.53 1013.93,159.87"/>
    </edge>
    <edge id=":10153812614_0" function="internal">
        <lane id=":10153812614_0_0" index="0" allow="pedestrian delivery bicycle" speed="5.56" length="9.40" shape="1006.23,213.09 997.04,211.11"/>
    </edge>
    <edge id=":10153812614_1" function="internal">
        <lane id=":10153812614_1_0" index="0" allow="pedestrian delivery bicycle" speed="5.56" length="10.16" shape="1006.23,213.09 1003.63,212.13 1001.96,210.56 1001.21,208.37 1001.38,205.58"/>
    </edge>
    <edge id=":10153812614_2" function="internal">
        <lane id=":10153812614_2_0" index="0" allow="pedestrian delivery bicycle" speed="3.65" length="4.67" shape="1006.23,213.09 1005.22,212.05 1005.00,211.19 1005.56,210.49 1006.90,209.96"/>
    </edge>
    <edge id=":10153812614_3" function="internal">
        <lane id=":10153812614_3_0" index="0" allow="pedestrian delivery bicycle" speed="5.08" length="5.04" shape="1004.51,206.22 1004.43,207.61 1004.79,208.70 1005.62,209.48 1006.90,209.96"/>
    </edge>
    <edge id=":10153812614_4" function="internal">
        <lane id=":10153812614_4_0" index="0" allow="pedestrian delivery bicycle" speed="5.56" length="10.21" shape="1004.51,206.22 1003.57,208.86 1002.01,210.56 999.83,211.31 997.04,211.11"/>
    </edge>
    <edge id=":10153812614_5" function="internal">
        <lane id=":10153812614_5_0" index="0" allow="pedestrian delivery bicycle" speed="3.65" length="4.67" shape="1004.51,206.22 1003.49,207.24 1002.63,207.47 1001.92,206.92 1001.38,205.58"/>
    </edge>
    <edge id=":10153812614_6" function="internal">
        <lane id=":10153812614_6_0" index="0" allow="pedestrian delivery bicycle" speed="5.03" length="5.01" shape="997.71,207.98 999.08,208.08 1000.15,207.71 1000.91,206.88 1001.38,205.58"/>
    </edge>
    <edge id=":10153812614_7" function="internal">
        <lane id=":10153812614_7_0" index="0" allow="pedestrian delivery bicycle" speed="5.56" length="9.40" shape="997.71,207.98 1006.90,209.96"/>
    </edge>
    <edge id=":10153812614_8" function="internal">
        <lane id=":10153812614_8_0" index="0" allow="pedestrian delivery bicycle" speed="3.65" length="4.67" shape="997.71,207.98 998.71,209.02 998.94,209.89 998.38,210.58 997.04,211.11"/>
    </edge>
    <edge id=":1070361724_0" function="internal">
        <lane id=":1070361724_0_0" index="0" disallow="tram rail_urban rail rail_electric rail_fast ship container cable_car subway aircraft wheelchair scooter drone" speed="5.59" length="5.91" shape="758.64,567.52 759.32,568.35 760.45,568.74 762.02,568.69 764.03,568.19"/>
        <lane id=":1070361724_0_1" index="1" disallow="tram rail_urban rail rail_electric rail_fast ship container cable_car subway aircraft wheelchair scooter drone" speed="7.27" length="10.66" shape="755.71,568.79 757.06,570.74 759.07,571.79 761.72,571.96 765.01,571.24"/>
    </edge>
    <edge id=":1070361724_2" function="internal">
        <lane id=":1070361724_2_0" index="0" disallow="tram rail_urban rail rail_electric rail_fast ship container cable_car subway aircraft wheelchair scooter drone" speed="27.78" length="12.09" shape="755.71,568.79 757.59,571.90 759.50,573.67 761.35,575.46 763.05,578.64"/>
        <lane id=":1070361724_2_1" index="1" disallow="tram rail_urban rail rail_electric rail_fast ship container cable_car subway aircraft wheelchair scooter drone" speed="27.78" length="12.09" shape="755.71,568.79 760.04,579.74"/>
    </edge>
    <edge id=":1070361724_4" function="internal">
        <lane id=":1070361724_4_0" index="0" disallow="tram rail_urban rail rail_electric rail_fast ship container cable_car subway aircraft wheelchair scooter drone" speed="27.78" length="13.07" shape="751.55,572.55 764.03,568.19"/>
        <lane id=":1070361724_4_1" index="1" disallow="tram rail_urban rail rail_electric rail_fast ship container cable_car subway aircraft wheelchair scooter drone" speed="27.78" length="13.07" shape="752.67,575.55 765.01,571.24"/>
        <lane id=":1070361724_4_2" index="2" disallow="tram rail_urban rail rail_electric rail_fast ship container cable_car subway aircraft wheelchair scooter drone" speed="27.78" length="13.07" shape="753.79,578.55 765.99,574.29"/>
    </edge>
    <edge id=":1070361724_7" function="internal">
        <lane id=":1070361724_7_0" index="0" disallow="tram rail_urban rail rail_electric rail_fast ship container cable_car subway aircraft wheelchair scooter drone" speed="5.85" length="7.14" shape="753.79,578.55 756.10,577.91 757.91,577.89 759.22,578.50 760.04,579.74"/>
    </edge>
    <edge id=":1070361777_0" function="internal">
        <lane id=":1070361777_0_0" index="0" disallow="tram rail_urban rail rail_electric rail_fast ship container cable_car subway aircraft wheelchair scooter drone" speed="6.20" length="7.86" shape="978.21,496.15 978.11,494.68 978.86,493.30 980.47,492.01 982.94,490.81"/>
    </edge>
    <edge id=":1070361777_1" function="internal">
        <lane id=":1070361777_1_0" index="0" disallow="tram rail_urban rail rail_electric rail_fast ship container cable_car subway aircraft wheelchair scooter drone" speed="3.65" length="4.67" shape="978.21,496.15 978.57,494.76 979.19,494.11 980.08,494.23 981.23,495.09"/>
    </edge>
    <edge id=":1070361777_2" function="internal">
        <lane id=":1070361777_2_0" index="0" disallow="tram rail_urban rail rail_electric rail_fast ship container cable_car subway aircraft wheelchair scooter drone" speed="22.22" length="9.43" shape="974.20,494.37 982.94,490.81"/>
    </edge>
    <edge id=":1070361777_3" function="internal">
        <lane id=":1070361777_3_0" index="0" disallow="tram rail_urban rail rail_electric rail_fast ship container cable_car subway aircraft wheelchair scooter drone" speed="6.03" length="7.91" shape="974.20,494.37 976.86,493.49 978.91,493.32 980.37,493.85 981.23,495.09"/>
    </edge>
    <edge id=":1070361796_0" function="internal">
        <lane id=":1070361796_0_0" index="0" disallow="tram rail_urban rail rail_electric rail_fast ship container cable_car subway aircraft wheelchair scooter drone" speed="8.33" length="0.30" shape="752.05,587.16 752.33,587.05"/>
    </edge>
    <edge id=":10991934396_0" function="internal">
        <lane id=":10991934396_0_0" index="0" allow="pedestrian delivery bicycle" speed="3.65" length="4.67" shape="825.64,301.71 824.26,301.30 823.64,300.65 823.79,299.77 824.70,298.65"/>
    </edge>
    <edge id=":10996444544_0" function="internal">
        <lane id=":10996444544_0_0" index="0" allow="pedestrian delivery bicycle" speed="3.65" length="4.67" shape="145.82,558.51 146.02,557.08 146.58,556.38 147.47,556.40 148.71,557.14"/>
    </edge>
    <edge id=":11001072269_0" function="internal">
        <lane id=":11001072269_0_0" index="0" allow="pedestrian delivery bicycle" speed="5.56" length="6.62" shape="725.76,388.65 723.91,387.77 722.27,387.40 720.81,387.55 719.56,388.22"/>
    </edge>
    <edge id=":11001072269_1" function="internal">
        <lane id=":11001072269_1_0" index="0" allow="pedestrian delivery bicycle" speed="5.56" length="8.82" shape="725.76,388.65 723.92,387.21 722.78,385.48 722.34,383.45 722.61,381.13"/>
    </edge>
    <edge id=":11001072269_2" function="internal">
        <lane id=":11001072269_2_0" index="0" allow="pedestrian delivery bicycle" speed="3.65" length="4.67" shape="725.76,388.65 725.13,387.35 725.19,386.46 725.94,385.98 727.38,385.90"/>
    </edge>
    <edge id=":11001072269_3" function="internal">
        <lane id=":11001072269_3_0" index="0" allow="pedestrian delivery bicycle" speed="5.43" length="4.67" shape="725.71,381.91 725.57,383.14 725.80,384.22 726.41,385.13 727.38,385.90"/>
    </edge>
    <edge id=":11001072269_4" function="internal">
        <lane id=":11001072269_4_0" index="0" allow="pedestrian delivery bicycle" speed="5.56" length="9.14" shape="725.71,381.91 724.78,384.31 723.52,385.64 721.82,386.68 719.56,388.22"/>
    </edge>
    <edge id=":11001072269_5" function="internal">
        <lane id=":11001072269_5_0" index="0" allow="pedestrian delivery bicycle" speed="3.65" length="4.67" shape="725.71,381.91 724.65,382.88 723.77,383.07 723.09,382.49 722.61,381.13"/>
    </edge>
    <edge id=":11001072274_0" function="internal">
        <lane id=":11001072274_0_0" index="0" allow="pedestrian delivery bicycle" speed="5.56" length="11.60" shape="697.77,327.15 694.79,325.70 693.26,323.74 693.20,321.25 694.59,318.24"/>
    </edge>
    <edge id=":11001072274_1" function="internal">
        <lane id=":11001072274_1_0" index="0" allow="pedestrian delivery bicycle" speed="3.65" length="4.67" shape="697.77,327.15 696.87,326.02 696.73,325.14 697.36,324.49 698.74,324.10"/>
    </edge>
    <edge id=":11001072274_2" function="internal">
        <lane id=":11001072274_2_0" index="0" allow="pedestrian delivery bicycle" speed="4.80" length="5.36" shape="697.28,319.99 696.63,321.38 696.66,322.52 697.37,323.43 698.74,324.10"/>
    </edge>
    <edge id=":11001072274_3" function="internal">
        <lane id=":11001072274_3_0" index="0" allow="pedestrian delivery bicycle" speed="3.65" length="4.67" shape="697.28,319.99 695.95,320.56 695.06,320.46 694.61,319.69 694.59,318.24"/>
    </edge>
    <edge id=":11001072274_4" function="internal">
        <lane id=":11001072274_4_0" index="0" allow="pedestrian delivery bicycle" speed="5.56" length="9.80" shape="688.43,325.51 690.86,324.12 692.17,322.65 693.15,320.79 694.59,318.24"/>
    </edge>
    <edge id=":11001072274_5" function="internal">
        <lane id=":11001072274_5_0" index="0" allow="pedestrian delivery bicycle" speed="5.56" length="10.80" shape="688.43,325.51 691.30,324.22 693.51,323.47 695.76,323.39 698.74,324.10"/>
    </edge>
    <edge id=":11307884034_0" function="internal">
        <lane id=":11307884034_0_0" index="0" disallow="tram rail_urban rail rail_electric rail_fast ship container cable_car subway aircraft wheelchair scooter drone" speed="27.78" length="5.31" shape="744.91,570.51 739.82,572.47"/>
        <lane id=":11307884034_0_1" index="1" disallow="tram rail_urban rail rail_electric rail_fast ship container cable_car subway aircraft wheelchair scooter drone" speed="27.78" length="5.31" shape="743.69,567.55 738.73,569.46"/>
        <lane id=":11307884034_0_2" index="2" disallow="tram rail_urban rail rail_electric rail_fast ship container cable_car subway aircraft wheelchair scooter drone" speed="27.78" length="5.31" shape="742.47,564.59 737.65,566.45"/>
    </edge>
    <edge id=":11307884035_0" function="internal">
        <lane id=":11307884035_0_0" index="0" disallow="tram rail_urban rail rail_electric rail_fast ship container cable_car subway aircraft wheelchair scooter drone" speed="27.78" length="0.30" shape="778.29,591.06 778.18,590.78"/>
        <lane id=":11307884035_0_1" index="1" disallow="tram rail_urban rail rail_electric rail_fast ship container cable_car subway aircraft wheelchair scooter drone" speed="27.78" length="0.30" shape="781.26,589.86 781.15,589.58"/>
    </edge>
    <edge id=":11348815671_0" function="internal">
        <lane id=":11348815671_0_0" index="0" disallow="tram rail_urban rail rail_electric rail_fast ship container cable_car subway aircraft wheelchair scooter drone" speed="8.33" length="1.28" shape="457.80,213.70 458.49,212.61"/>
    </edge>
    <edge id=":11348815691_0" function="internal">
        <lane id=":11348815691_0_0" index="0" disallow="tram rail_urban rail rail_electric rail_fast ship container cable_car subway aircraft wheelchair scooter drone" speed="15.28" length="0.10" shape="463.70,254.59 463.70,254.59"/>
    </edge>
    <edge id=":11395428610_0" function="internal">
        <lane id=":11395428610_0_0" index="0" allow="pedestrian delivery bicycle" speed="5.56" length="5.00" shape="773.61,711.85 771.89,707.15"/>
    </edge>
    <edge id=":11395428610_1" function="internal">
        <lane id=":11395428610_1_0" index="0" allow="pedestrian delivery bicycle" speed="3.65" length="4.67" shape="773.61,711.85 773.95,710.45 774.56,709.80 775.45,709.90 776.61,710.75"/>
    </edge>
    <edge id=":11395428610_2" function="internal">
        <lane id=":11395428610_2_0" index="0" allow="pedestrian delivery bicycle" speed="5.56" length="5.00" shape="774.89,706.05 776.61,710.75"/>
    </edge>
    <edge id=":11395428610_3" function="internal">
        <lane id=":11395428610_3_0" index="0" allow="pedestrian delivery bicycle" speed="3.65" length="4.67" shape="774.89,706.05 774.56,707.46 773.94,708.11 773.05,708.01 771.89,707.15"/>
    </edge>
    <edge id=":11882719580_0" function="internal">
        <lane id=":11882719580_0_0" index="0" disallow="tram rail_urban rail rail_electric rail_fast ship container cable_car subway aircraft wheelchair scooter drone" speed="27.78" length="5.46" shape="780.85,553.79 775.90,556.10"/>
        <lane id=":11882719580_0_1" index="1" disallow="tram rail_urban rail rail_electric rail_fast ship container cable_car subway aircraft wheelchair scooter drone" speed="27.78" length="5.46" shape="779.49,550.89 774.55,553.20"/>
    </edge>
    <edge id=":11882719581_0" function="internal">
        <lane id=":11882719581_0_0" index="0" disallow="tram rail_urban rail rail_electric rail_fast ship container cable_car subway aircraft wheelchair scooter drone" speed="27.78" length="5.25" shape="778.37,562.70 783.22,560.63"/>
        <lane id=":11882719581_0_1" index="1" disallow="tram rail_urban rail rail_electric rail_fast ship container cable_car subway aircraft wheelchair scooter drone" speed="27.78" length="5.25" shape="779.63,565.64 784.46,563.57"/>
        <lane id=":11882719581_0_2" index="2" disallow="tram rail_urban rail rail_electric rail_fast ship container cable_car subway aircraft wheelchair scooter drone" speed="27.78" length="5.25" shape="780.90,568.57 785.71,566.52"/>
    </edge>
    <edge id=":11882719587_0" function="internal">
        <lane id=":11882719587_0_0" index="0" disallow="tram rail_urban rail rail_electric rail_fast ship container cable_car subway aircraft wheelchair scooter drone" speed="8.33" length="2.31" shape="753.19,554.39 754.09,556.55"/>
        <lane id=":11882719587_0_1" index="1" disallow="tram rail_urban rail rail_electric rail_fast ship container cable_car subway aircraft wheelchair scooter drone" speed="8.33" length="2.31" shape="750.23,555.62 751.11,557.74"/>
    </edge>
    <edge id=":11882719588_0" function="internal">
        <lane id=":11882719588_0_0" index="0" disallow="tram rail_urban rail rail_electric rail_fast ship container cable_car subway aircraft wheelchair scooter drone" speed="27.78" length="3.48" shape="763.61,553.60 762.41,550.33"/>
        <lane id=":11882719588_0_1" index="1" disallow="tram rail_urban rail rail_electric rail_fast ship container cable_car subway aircraft wheelchair scooter drone" speed="27.78" length="3.48" shape="766.61,552.49 765.41,549.22"/>
    </edge>
    <edge id=":11882719591_0" function="internal">
        <lane id=":11882719591_0_0" index="0" disallow="tram rail_urban rail rail_electric rail_fast ship container cable_car subway aircraft wheelchair scooter drone" speed="27.78" length="5.39" shape="741.81,576.18 746.86,574.30"/>
        <lane id=":11882719591_0_1" index="1" disallow="tram rail_urban rail rail_electric rail_fast ship container cable_car subway aircraft wheelchair scooter drone" speed="27.78" length="5.39" shape="742.93,579.18 747.98,577.30"/>
        <lane id=":11882719591_0_2" index="2" disallow="tram rail_urban rail rail_electric rail_fast ship container cable_car subway aircraft wheelchair scooter drone" speed="27.78" length="5.39" shape="744.05,582.18 749.10,580.30"/>
    </edge>
    <edge id=":11964724285_0" function="internal">
        <lane id=":11964724285_0_0" index="0" disallow="pedestrian tram rail_urban rail rail_electric rail_fast ship container cable_car subway aircraft wheelchair scooter drone" speed="8.08" length="22.49" shape="143.13,787.58 136.06,787.31 132.53,785.09 132.54,780.92 136.10,774.80"/>
        <lane id=":11964724285_0_1" index="1" disallow="pedestrian tram rail_urban rail rail_electric rail_fast ship container cable_car subway aircraft wheelchair scooter drone" speed="6.40" length="13.49" shape="142.87,784.39 138.63,784.23 136.52,782.89 136.52,780.39 138.66,776.72"/>
        <lane id=":11964724285_0_2" index="2" disallow="pedestrian tram rail_urban rail rail_electric rail_fast ship container cable_car subway aircraft wheelchair scooter drone" speed="4.07" length="4.50" shape="142.62,781.20 141.21,781.15 140.50,780.70 140.51,779.87 141.22,778.64"/>
    </edge>
    <edge id=":12074449284_0" function="internal">
        <lane id=":12074449284_0_0" index="0" disallow="tram rail_urban rail rail_electric rail_fast ship container cable_car subway aircraft wheelchair scooter drone" speed="27.78" length="0.30" shape="1579.01,220.88 1578.73,221.01"/>
        <lane id=":12074449284_0_1" index="1" disallow="tram rail_urban rail rail_electric rail_fast ship container cable_car subway aircraft wheelchair scooter drone" speed="27.78" length="0.30" shape="1577.69,217.97 1577.42,218.09"/>
    </edge>
    <edge id=":12171177922_0" function="internal">
        <lane id=":12171177922_0_0" index="0" allow="pedestrian delivery bicycle" speed="5.56" length="4.65" shape="554.00,672.42 552.27,668.10"/>
    </edge>
    <edge id=":12171177923_0" function="internal">
        <lane id=":12171177923_0_0" index="0" allow="pedestrian delivery bicycle" speed="4.91" length="4.70" shape="552.13,667.74 551.88,666.56 552.12,665.56 552.84,664.73 554.04,664.08"/>
    </edge>
    <edge id=":12171177923_1" function="internal">
        <lane id=":12171177923_1_0" index="0" disallow="tram rail_urban rail rail_electric rail_fast ship container cable_car subway aircraft wheelchair scooter drone" speed="8.33" length="6.20" shape="548.26,666.33 554.04,664.08"/>
    </edge>
    <edge id=":12690221719_0" function="internal">
        <lane id=":12690221719_0_0" index="0" allow="pedestrian delivery bicycle" speed="6.20" length="7.76" shape="407.31,714.28 406.62,711.55 406.50,709.46 406.96,708.00 408.01,707.18"/>
        <lane id=":12690221719_0_1" index="1" allow="pedestrian delivery bicycle" speed="5.16" length="5.08" shape="407.31,714.28 407.06,712.88 407.28,711.73 407.98,710.83 409.15,710.17"/>
    </edge>
    <edge id=":12690221719_2" function="internal">
        <lane id=":12690221719_2_0" index="0" disallow="tram rail_urban rail rail_electric rail_fast ship container cable_car subway aircraft wheelchair scooter drone" speed="27.78" length="6.21" shape="401.07,706.41 406.86,704.19"/>
        <lane id=":12690221719_2_1" index="1" disallow="tram rail_urban rail rail_electric rail_fast ship container cable_car subway aircraft wheelchair scooter drone" speed="27.78" length="6.21" shape="402.21,709.39 408.01,707.18"/>
        <lane id=":12690221719_2_2" index="2" disallow="tram rail_urban rail rail_electric rail_fast ship container cable_car subway aircraft wheelchair scooter drone" speed="27.78" length="6.21" shape="403.35,712.38 409.15,710.17"/>
    </edge>
    <edge id=":1472248456_0" function="internal">
        <lane id=":1472248456_0_0" index="0" disallow="pedestrian tram rail_urban rail rail_electric rail_fast ship container cable_car subway aircraft wheelchair scooter drone" speed="16.67" length="9.17" shape="367.72,385.87 369.15,383.57 370.43,382.19 371.70,380.81 373.11,378.51"/>
        <lane id=":1472248456_0_1" index="1" disallow="pedestrian tram rail_urban rail rail_electric rail_fast ship container cable_car subway aircraft wheelchair scooter drone" speed="16.67" length="9.17" shape="370.58,387.31 372.00,385.01 373.29,383.63 374.56,382.24 375.98,379.94"/>
    </edge>
    <edge id=":1472248456_2" function="internal">
        <lane id=":1472248456_2_0" index="0" disallow="pedestrian tram rail_urban rail rail_electric rail_fast ship container cable_car subway aircraft wheelchair scooter drone" speed="12.50" length="8.81" shape="373.44,388.75 374.72,386.50 375.83,385.10 377.12,383.83 378.93,381.94"/>
    </edge>
    <edge id=":1473298162_0" function="internal">
        <lane id=":1473298162_0_0" index="0" disallow="pedestrian tram rail_urban rail rail_electric rail_fast ship container cable_car subway aircraft wheelchair scooter drone" speed="6.75" length="14.93" shape="364.48,419.34 359.85,419.78 357.29,418.61 356.80,415.84 358.38,411.47"/>
        <lane id=":1473298162_0_1" index="1" disallow="pedestrian tram rail_urban rail rail_electric rail_fast ship container cable_car subway aircraft wheelchair scooter drone" speed="5.81" length="10.64" shape="364.48,419.34 361.55,419.53 360.02,418.53 359.92,416.32 361.24,412.91"/>
    </edge>
    <edge id=":1473298162_2" function="internal">
        <lane id=":1473298162_2_0" index="0" disallow="tram rail_urban rail rail_electric rail_fast ship container cable_car subway aircraft wheelchair scooter drone" speed="3.65" length="4.67" shape="364.48,419.34 363.14,418.81 362.58,418.12 362.80,417.25 363.80,416.21"/>
    </edge>
    <edge id=":1473298162_3" function="internal">
        <lane id=":1473298162_3_0" index="0" disallow="pedestrian tram rail_urban rail rail_electric rail_fast ship container cable_car subway aircraft wheelchair scooter drone" speed="16.67" length="11.21" shape="350.48,419.77 355.53,410.02"/>
        <lane id=":1473298162_3_1" index="1" disallow="pedestrian tram rail_urban rail rail_electric rail_fast ship container cable_car subway aircraft wheelchair scooter drone" speed="16.67" length="11.21" shape="353.23,421.41 358.38,411.47"/>
        <lane id=":1473298162_3_2" index="2" disallow="pedestrian tram rail_urban rail rail_electric rail_fast ship container cable_car subway aircraft wheelchair scooter drone" speed="16.67" length="11.21" shape="355.97,423.06 361.24,412.91"/>
    </edge>
    <edge id=":1473298162_6" function="internal">
        <lane id=":1473298162_6_0" index="0" disallow="pedestrian tram rail_urban rail rail_electric rail_fast ship container cable_car subway aircraft wheelchair scooter drone" speed="10.51" length="10.67" shape="355.97,423.06 357.79,420.42 359.70,418.39 361.70,416.99 363.80,416.21"/>
    </edge>
    <edge id=":1607671416_0" function="internal">
        <lane id=":1607671416_0_0" index="0" disallow="tram rail_urban rail rail_electric rail_fast ship container cable_car subway aircraft wheelchair scooter drone" speed="3.65" length="4.67" shape="40.09,269.08 38.74,268.57 38.17,267.88 38.38,267.01 39.37,265.96"/>
    </edge>
    <edge id=":1607671449_0" function="internal">
        <lane id=":1607671449_0_0" index="0" disallow="tram rail_urban rail rail_electric rail_fast ship container cable_car subway aircraft wheelchair scooter drone" speed="27.78" length="13.88" shape="145.35,315.93 144.35,312.50 143.31,309.30 142.18,306.13 140.87,302.80"/>
    </edge>
    <edge id=":1607671449_1" function="internal">
        <lane id=":1607671449_1_0" index="0" disallow="tram rail_urban rail rail_electric rail_fast ship container cable_car subway aircraft wheelchair scooter drone" speed="7.92" length="3.96" shape="145.35,315.93 144.83,312.00"/>
    </edge>
    <edge id=":1607671449_2" function="internal">
        <lane id=":1607671449_2_0" index="0" disallow="tram rail_urban rail rail_electric rail_fast ship container cable_car subway aircraft wheelchair scooter drone" speed="3.65" length="1.44" shape="145.35,315.93 145.80,314.56"/>
    </edge>
    <edge id=":1607671449_9" function="internal">
        <lane id=":1607671449_9_0" index="0" disallow="tram rail_urban rail rail_electric rail_fast ship container cable_car subway aircraft wheelchair scooter drone" speed="7.92" length="10.40" shape="144.83,312.00 145.72,308.90 148.00,306.64 151.69,305.20"/>
    </edge>
    <edge id=":1607671449_10" function="internal">
        <lane id=":1607671449_10_0" index="0" disallow="tram rail_urban rail rail_electric rail_fast ship container cable_car subway aircraft wheelchair scooter drone" speed="3.65" length="3.23" shape="145.80,314.56 146.46,313.96 147.34,314.12 148.43,315.06"/>
    </edge>
    <edge id=":1607671449_3" function="internal">
        <lane id=":1607671449_3_0" index="0" disallow="tram rail_urban rail rail_electric rail_fast ship container cable_car subway aircraft wheelchair scooter drone" speed="6.41" length="9.04" shape="152.42,308.31 150.10,309.22 148.66,310.64 148.11,312.59 148.43,315.06"/>
    </edge>
    <edge id=":1607671449_4" function="internal">
        <lane id=":1607671449_4_0" index="0" disallow="tram rail_urban rail rail_electric rail_fast ship container cable_car subway aircraft wheelchair scooter drone" speed="8.48" length="14.13" shape="152.42,308.31 148.52,308.71 145.29,307.92 142.74,305.96 140.87,302.80"/>
    </edge>
    <edge id=":1607671449_5" function="internal">
        <lane id=":1607671449_5_0" index="0" disallow="tram rail_urban rail rail_electric rail_fast ship container cable_car subway aircraft wheelchair scooter drone" speed="3.65" length="4.67" shape="152.42,308.31 151.07,307.81 150.50,307.12 150.71,306.25 151.69,305.20"/>
    </edge>
    <edge id=":1607671449_6" function="internal">
        <lane id=":1607671449_6_0" index="0" disallow="tram rail_urban rail rail_electric rail_fast ship container cable_car subway aircraft wheelchair scooter drone" speed="7.08" length="9.54" shape="143.83,301.59 145.09,303.68 146.82,304.97 149.02,305.48 151.69,305.20"/>
    </edge>
    <edge id=":1607671449_7" function="internal">
        <lane id=":1607671449_7_0" index="0" disallow="tram rail_urban rail rail_electric rail_fast ship container cable_car subway aircraft wheelchair scooter drone" speed="27.78" length="14.24" shape="143.83,301.59 145.16,304.97 146.34,308.26 147.41,311.58 148.43,315.06"/>
    </edge>
    <edge id=":1607671449_8" function="internal">
        <lane id=":1607671449_8_0" index="0" disallow="tram rail_urban rail rail_electric rail_fast ship container cable_car subway aircraft wheelchair scooter drone" speed="3.65" length="1.44" shape="143.83,301.59 143.55,303.01"/>
    </edge>
    <edge id=":1607671449_11" function="internal">
        <lane id=":1607671449_11_0" index="0" disallow="tram rail_urban rail rail_electric rail_fast ship container cable_car subway aircraft wheelchair scooter drone" speed="3.65" length="3.23" shape="143.55,303.01 142.96,303.68 142.07,303.61 140.87,302.80"/>
    </edge>
    <edge id=":1607671480_0" function="internal">
        <lane id=":1607671480_0_0" index="0" disallow="tram rail_urban rail rail_electric rail_fast ship container cable_car subway aircraft wheelchair scooter drone" speed="6.93" length="9.56" shape="183.45,457.53 182.45,455.29 180.88,453.84 178.74,453.16 176.02,453.25"/>
    </edge>
    <edge id=":1607671480_1" function="internal">
        <lane id=":1607671480_1_0" index="0" disallow="tram rail_urban rail rail_electric rail_fast ship container cable_car subway aircraft wheelchair scooter drone" speed="27.78" length="13.44" shape="183.45,457.53 179.98,444.54"/>
    </edge>
    <edge id=":1607671480_2" function="internal">
        <lane id=":1607671480_2_0" index="0" disallow="tram rail_urban rail rail_electric rail_fast ship container cable_car subway aircraft wheelchair scooter drone" speed="3.65" length="1.44" shape="183.45,457.53 183.91,456.16"/>
    </edge>
    <edge id=":1607671480_9" function="internal">
        <lane id=":1607671480_9_0" index="0" disallow="tram rail_urban rail rail_electric rail_fast ship container cable_car subway aircraft wheelchair scooter drone" speed="3.65" length="3.23" shape="183.91,456.16 184.58,455.57 185.45,455.75 186.54,456.70"/>
    </edge>
    <edge id=":1607671480_3" function="internal">
        <lane id=":1607671480_3_0" index="0" disallow="tram rail_urban rail rail_electric rail_fast ship container cable_car subway aircraft wheelchair scooter drone" speed="27.78" length="13.42" shape="183.08,443.73 186.54,456.70"/>
    </edge>
    <edge id=":1607671480_4" function="internal">
        <lane id=":1607671480_4_0" index="0" disallow="tram rail_urban rail rail_electric rail_fast ship container cable_car subway aircraft wheelchair scooter drone" speed="7.65" length="3.63" shape="183.08,443.73 183.43,447.34"/>
    </edge>
    <edge id=":1607671480_5" function="internal">
        <lane id=":1607671480_5_0" index="0" disallow="tram rail_urban rail rail_electric rail_fast ship container cable_car subway aircraft wheelchair scooter drone" speed="3.65" length="1.44" shape="183.08,443.73 182.61,445.09"/>
    </edge>
    <edge id=":1607671480_10" function="internal">
        <lane id=":1607671480_10_0" index="0" disallow="tram rail_urban rail rail_electric rail_fast ship container cable_car subway aircraft wheelchair scooter drone" speed="7.65" length="10.19" shape="183.43,447.34 182.37,450.13 179.90,452.10 176.02,453.25"/>
    </edge>
    <edge id=":1607671480_11" function="internal">
        <lane id=":1607671480_11_0" index="0" disallow="tram rail_urban rail rail_electric rail_fast ship container cable_car subway aircraft wheelchair scooter drone" speed="3.65" length="3.23" shape="182.61,445.09 181.94,445.68 181.06,445.50 179.98,444.54"/>
    </edge>
    <edge id=":1607671480_6" function="internal">
        <lane id=":1607671480_6_0" index="0" disallow="tram rail_urban rail rail_electric rail_fast ship container cable_car subway aircraft wheelchair scooter drone" speed="6.07" length="8.29" shape="175.51,450.09 177.92,449.40 179.47,448.25 180.16,446.63 179.98,444.54"/>
    </edge>
    <edge id=":1607671480_7" function="internal">
        <lane id=":1607671480_7_0" index="0" disallow="tram rail_urban rail rail_electric rail_fast ship container cable_car subway aircraft wheelchair scooter drone" speed="8.36" length="14.34" shape="175.51,450.09 179.52,449.97 182.69,451.03 185.03,453.27 186.54,456.70"/>
    </edge>
    <edge id=":1607671480_8" function="internal">
        <lane id=":1607671480_8_0" index="0" disallow="tram rail_urban rail rail_electric rail_fast ship container cable_car subway aircraft wheelchair scooter drone" speed="3.65" length="4.67" shape="175.51,450.09 176.82,450.69 177.35,451.42 177.08,452.27 176.02,453.25"/>
    </edge>
    <edge id=":1607671489_0" function="internal">
        <lane id=":1607671489_0_0" index="0" disallow="tram rail_urban rail rail_electric rail_fast ship container cable_car subway aircraft wheelchair scooter drone" speed="3.65" length="4.67" shape="0.23,479.41 -1.07,478.79 -1.58,478.05 -1.30,477.20 -0.23,476.24"/>
    </edge>
    <edge id=":1607769699_0" function="internal">
        <lane id=":1607769699_0_0" index="0" disallow="tram rail_urban rail rail_electric rail_fast ship container cable_car subway aircraft wheelchair scooter drone" speed="3.65" length="4.67" shape="265.82,54.11 265.86,52.67 266.33,51.91 267.22,51.82 268.53,52.42"/>
    </edge>
    <edge id=":1607769741_0" function="internal">
        <lane id=":1607769741_0_0" index="0" disallow="tram rail_urban rail rail_electric rail_fast ship container cable_car subway aircraft wheelchair scooter drone" speed="3.65" length="4.67" shape="438.49,137.43 439.81,136.85 440.70,136.94 441.16,137.71 441.19,139.15"/>
    </edge>
    <edge id=":1607769749_0" function="internal">
        <lane id=":1607769749_0_0" index="0" disallow="tram rail_urban rail rail_electric rail_fast ship container cable_car subway aircraft wheelchair scooter drone" speed="6.51" length="8.78" shape="365.98,155.50 363.84,154.42 361.86,154.25 360.01,155.01 358.31,156.69"/>
    </edge>
    <edge id=":1607769749_1" function="internal">
        <lane id=":1607769749_1_0" index="0" disallow="tram rail_urban rail rail_electric rail_fast ship container cable_car subway aircraft wheelchair scooter drone" speed="13.89" length="13.42" shape="365.98,155.50 363.17,153.39 360.81,151.22 358.73,148.78 356.79,145.87"/>
    </edge>
    <edge id=":1607769749_2" function="internal">
        <lane id=":1607769749_2_0" index="0" disallow="tram rail_urban rail rail_electric rail_fast ship container cable_car subway aircraft wheelchair scooter drone" speed="3.65" length="1.44" shape="365.98,155.50 365.45,154.16"/>
    </edge>
    <edge id=":1607769749_9" function="internal">
        <lane id=":1607769749_9_0" index="0" disallow="tram rail_urban rail rail_electric rail_fast ship container cable_car subway aircraft wheelchair scooter drone" speed="3.65" length="3.23" shape="365.45,154.16 365.59,153.27 366.37,152.85 367.81,152.88"/>
    </edge>
    <edge id=":1607769749_3" function="internal">
        <lane id=":1607769749_3_0" index="0" disallow="tram rail_urban rail rail_electric rail_fast ship container cable_car subway aircraft wheelchair scooter drone" speed="13.89" length="12.09" shape="359.55,144.24 361.34,147.00 363.10,149.10 365.15,150.93 367.81,152.88"/>
    </edge>
    <edge id=":1607769749_4" function="internal">
        <lane id=":1607769749_4_0" index="0" disallow="tram rail_urban rail rail_electric rail_fast ship container cable_car subway aircraft wheelchair scooter drone" speed="9.16" length="3.32" shape="359.55,144.24 360.82,147.30"/>
    </edge>
    <edge id=":1607769749_5" function="internal">
        <lane id=":1607769749_5_0" index="0" disallow="tram rail_urban rail rail_electric rail_fast ship container cable_car subway aircraft wheelchair scooter drone" speed="3.65" length="1.44" shape="359.55,144.24 359.47,145.68"/>
    </edge>
    <edge id=":1607769749_10" function="internal">
        <lane id=":1607769749_10_0" index="0" disallow="tram rail_urban rail rail_electric rail_fast ship container cable_car subway aircraft wheelchair scooter drone" speed="9.16" length="10.03" shape="360.82,147.30 361.04,150.40 360.20,153.53 358.31,156.69"/>
    </edge>
    <edge id=":1607769749_11" function="internal">
        <lane id=":1607769749_11_0" index="0" disallow="tram rail_urban rail rail_electric rail_fast ship container cable_car subway aircraft wheelchair scooter drone" speed="3.65" length="3.23" shape="359.47,145.68 358.99,146.43 358.09,146.49 356.79,145.87"/>
    </edge>
    <edge id=":1607769749_6" function="internal">
        <lane id=":1607769749_6_0" index="0" disallow="tram rail_urban rail rail_electric rail_fast ship container cable_car subway aircraft wheelchair scooter drone" speed="7.82" length="9.54" shape="355.76,154.75 357.15,152.45 357.79,150.21 357.67,148.01 356.79,145.87"/>
    </edge>
    <edge id=":1607769749_7" function="internal">
        <lane id=":1607769749_7_0" index="0" disallow="tram rail_urban rail rail_electric rail_fast ship container cable_car subway aircraft wheelchair scooter drone" speed="8.01" length="13.79" shape="355.76,154.75 358.44,152.11 361.34,150.92 364.46,151.18 367.81,152.88"/>
    </edge>
    <edge id=":1607769749_8" function="internal">
        <lane id=":1607769749_8_0" index="0" disallow="tram rail_urban rail rail_electric rail_fast ship container cable_car subway aircraft wheelchair scooter drone" speed="3.65" length="4.67" shape="355.76,154.75 357.13,154.28 358.00,154.45 358.40,155.25 358.31,156.69"/>
    </edge>
    <edge id=":1607769754_0" function="internal">
        <lane id=":1607769754_0_0" index="0" disallow="tram rail_urban rail rail_electric rail_fast ship container cable_car subway aircraft wheelchair scooter drone" speed="6.65" length="9.31" shape="347.26,181.01 344.90,179.90 342.76,179.76 340.86,180.60 339.18,182.41"/>
    </edge>
    <edge id=":1607769754_1" function="internal">
        <lane id=":1607769754_1_0" index="0" disallow="tram rail_urban rail rail_electric rail_fast ship container cable_car subway aircraft wheelchair scooter drone" speed="13.89" length="15.05" shape="347.26,181.01 344.14,178.92 341.08,176.72 338.10,174.42 335.21,172.02"/>
    </edge>
    <edge id=":1607769754_2" function="internal">
        <lane id=":1607769754_2_0" index="0" disallow="tram rail_urban rail rail_electric rail_fast ship container cable_car subway aircraft wheelchair scooter drone" speed="7.87" length="14.50" shape="347.26,181.01 344.23,178.38 342.86,175.45 343.16,172.23 345.11,168.72"/>
    </edge>
    <edge id=":1607769754_3" function="internal">
        <lane id=":1607769754_3_0" index="0" disallow="tram rail_urban rail rail_electric rail_fast ship container cable_car subway aircraft wheelchair scooter drone" speed="3.65" length="4.67" shape="347.26,181.01 346.69,179.69 346.79,178.80 347.56,178.34 349.00,178.32"/>
    </edge>
    <edge id=":1607769754_4" function="internal">
        <lane id=":1607769754_4_0" index="0" disallow="tram rail_urban rail rail_electric rail_fast ship container cable_car subway aircraft wheelchair scooter drone" speed="6.34" length="9.04" shape="347.66,170.66 346.44,172.85 346.25,174.85 347.11,176.68 349.00,178.32"/>
    </edge>
    <edge id=":1607769754_5" function="internal">
        <lane id=":1607769754_5_0" index="0" disallow="tram rail_urban rail rail_electric rail_fast ship container cable_car subway aircraft wheelchair scooter drone" speed="13.89" length="14.49" shape="347.66,170.66 339.18,182.41"/>
    </edge>
    <edge id=":1607769754_6" function="internal">
        <lane id=":1607769754_6_0" index="0" disallow="tram rail_urban rail rail_electric rail_fast ship container cable_car subway aircraft wheelchair scooter drone" speed="7.91" length="4.01" shape="347.66,170.66 344.80,173.48"/>
    </edge>
    <edge id=":1607769754_7" function="internal">
        <lane id=":1607769754_7_0" index="0" disallow="tram rail_urban rail rail_electric rail_fast ship container cable_car subway aircraft wheelchair scooter drone" speed="3.65" length="1.44" shape="347.66,170.66 346.29,171.13"/>
    </edge>
    <edge id=":1607769754_16" function="internal">
        <lane id=":1607769754_16_0" index="0" disallow="tram rail_urban rail rail_electric rail_fast ship container cable_car subway aircraft wheelchair scooter drone" speed="7.91" length="10.46" shape="344.80,173.48 341.77,174.64 338.57,174.16 335.21,172.02"/>
    </edge>
    <edge id=":1607769754_17" function="internal">
        <lane id=":1607769754_17_0" index="0" disallow="tram rail_urban rail rail_electric rail_fast ship container cable_car subway aircraft wheelchair scooter drone" speed="3.65" length="3.23" shape="346.29,171.13 345.41,170.96 345.02,170.16 345.11,168.72"/>
    </edge>
    <edge id=":1607769754_8" function="internal">
        <lane id=":1607769754_8_0" index="0" disallow="tram rail_urban rail rail_electric rail_fast ship container cable_car subway aircraft wheelchair scooter drone" speed="6.40" length="9.09" shape="337.29,169.59 339.40,170.93 341.41,171.23 343.31,170.49 345.11,168.72"/>
    </edge>
    <edge id=":1607769754_9" function="internal">
        <lane id=":1607769754_9_0" index="0" disallow="tram rail_urban rail rail_electric rail_fast ship container cable_car subway aircraft wheelchair scooter drone" speed="13.89" length="14.61" shape="337.29,169.59 340.13,171.95 342.99,174.16 345.93,176.27 349.00,178.32"/>
    </edge>
    <edge id=":1607769754_10" function="internal">
        <lane id=":1607769754_10_0" index="0" disallow="tram rail_urban rail rail_electric rail_fast ship container cable_car subway aircraft wheelchair scooter drone" speed="8.41" length="14.44" shape="337.29,169.59 339.92,172.55 341.11,175.67 340.86,178.96 339.18,182.41"/>
    </edge>
    <edge id=":1607769754_11" function="internal">
        <lane id=":1607769754_11_0" index="0" disallow="tram rail_urban rail rail_electric rail_fast ship container cable_car subway aircraft wheelchair scooter drone" speed="3.65" length="4.67" shape="337.29,169.59 337.68,170.98 337.47,171.85 336.64,172.20 335.21,172.02"/>
    </edge>
    <edge id=":1607769754_12" function="internal">
        <lane id=":1607769754_12_0" index="0" disallow="tram rail_urban rail rail_electric rail_fast ship container cable_car subway aircraft wheelchair scooter drone" speed="6.99" length="9.69" shape="336.53,180.61 337.65,178.31 337.80,176.11 336.99,174.01 335.21,172.02"/>
    </edge>
    <edge id=":1607769754_13" function="internal">
        <lane id=":1607769754_13_0" index="0" disallow="tram rail_urban rail rail_electric rail_fast ship container cable_car subway aircraft wheelchair scooter drone" speed="13.89" length="14.67" shape="336.53,180.61 345.11,168.72"/>
    </edge>
    <edge id=":1607769754_14" function="internal">
        <lane id=":1607769754_14_0" index="0" disallow="tram rail_urban rail rail_electric rail_fast ship container cable_car subway aircraft wheelchair scooter drone" speed="8.12" length="4.21" shape="336.53,180.61 339.14,177.78 339.46,177.63"/>
    </edge>
    <edge id=":1607769754_15" function="internal">
        <lane id=":1607769754_15_0" index="0" disallow="tram rail_urban rail rail_electric rail_fast ship container cable_car subway aircraft wheelchair scooter drone" speed="3.65" length="1.44" shape="336.53,180.61 337.87,180.07"/>
    </edge>
    <edge id=":1607769754_18" function="internal">
        <lane id=":1607769754_18_0" index="0" disallow="tram rail_urban rail rail_electric rail_fast ship container cable_car subway aircraft wheelchair scooter drone" speed="8.12" length="10.17" shape="339.46,177.63 342.09,176.45 345.37,176.63 349.00,178.32"/>
    </edge>
    <edge id=":1607769754_19" function="internal">
        <lane id=":1607769754_19_0" index="0" disallow="tram rail_urban rail rail_electric rail_fast ship container cable_car subway aircraft wheelchair scooter drone" speed="3.65" length="3.23" shape="337.87,180.07 338.75,180.19 339.19,180.97 339.18,182.41"/>
    </edge>
    <edge id=":1607769768_0" function="internal">
        <lane id=":1607769768_0_0" index="0" disallow="tram rail_urban rail rail_electric rail_fast ship container cable_car subway aircraft wheelchair scooter drone" speed="6.77" length="9.32" shape="274.96,190.57 273.96,188.16 272.47,186.59 270.50,185.86 268.05,185.96"/>
    </edge>
    <edge id=":1607769768_1" function="internal">
        <lane id=":1607769768_1_0" index="0" disallow="tram rail_urban rail rail_electric rail_fast ship container cable_car subway aircraft wheelchair scooter drone" speed="7.93" length="14.35" shape="274.96,190.57 274.48,186.64 275.40,183.56 277.70,181.30 281.39,179.89"/>
    </edge>
    <edge id=":1607769768_2" function="internal">
        <lane id=":1607769768_2_0" index="0" disallow="tram rail_urban rail rail_electric rail_fast ship container cable_car subway aircraft wheelchair scooter drone" speed="3.65" length="4.67" shape="274.96,190.57 275.42,189.20 276.09,188.61 276.96,188.78 278.05,189.74"/>
    </edge>
    <edge id=":1607769768_3" function="internal">
        <lane id=":1607769768_3_0" index="0" disallow="tram rail_urban rail rail_electric rail_fast ship container cable_car subway aircraft wheelchair scooter drone" speed="6.42" length="9.04" shape="282.10,183.01 279.78,183.90 278.33,185.32 277.75,187.26 278.05,189.74"/>
    </edge>
    <edge id=":1607769768_4" function="internal">
        <lane id=":1607769768_4_0" index="0" disallow="tram rail_urban rail rail_electric rail_fast ship container cable_car subway aircraft wheelchair scooter drone" speed="13.89" length="14.35" shape="282.10,183.01 268.05,185.96"/>
    </edge>
    <edge id=":1607769768_5" function="internal">
        <lane id=":1607769768_5_0" index="0" disallow="tram rail_urban rail rail_electric rail_fast ship container cable_car subway aircraft wheelchair scooter drone" speed="3.65" length="1.44" shape="282.10,183.01 280.75,182.50"/>
    </edge>
    <edge id=":1607769768_9" function="internal">
        <lane id=":1607769768_9_0" index="0" disallow="tram rail_urban rail rail_electric rail_fast ship container cable_car subway aircraft wheelchair scooter drone" speed="3.65" length="3.23" shape="280.75,182.50 280.19,181.81 280.40,180.94 281.39,179.89"/>
    </edge>
    <edge id=":1607769768_6" function="internal">
        <lane id=":1607769768_6_0" index="0" disallow="tram rail_urban rail rail_electric rail_fast ship container cable_car subway aircraft wheelchair scooter drone" speed="13.89" length="14.25" shape="267.45,182.81 281.39,179.89"/>
    </edge>
    <edge id=":1607769768_7" function="internal">
        <lane id=":1607769768_7_0" index="0" disallow="tram rail_urban rail rail_electric rail_fast ship container cable_car subway aircraft wheelchair scooter drone" speed="8.23" length="3.78" shape="267.45,182.81 271.23,182.65"/>
    </edge>
    <edge id=":1607769768_8" function="internal">
        <lane id=":1607769768_8_0" index="0" disallow="tram rail_urban rail rail_electric rail_fast ship container cable_car subway aircraft wheelchair scooter drone" speed="3.65" length="1.44" shape="267.45,182.81 268.78,183.37"/>
    </edge>
    <edge id=":1607769768_10" function="internal">
        <lane id=":1607769768_10_0" index="0" disallow="tram rail_urban rail rail_electric rail_fast ship container cable_car subway aircraft wheelchair scooter drone" speed="8.23" length="10.43" shape="271.23,182.65 274.25,183.75 276.53,186.11 278.05,189.74"/>
    </edge>
    <edge id=":1607769768_11" function="internal">
        <lane id=":1607769768_11_0" index="0" disallow="tram rail_urban rail rail_electric rail_fast ship container cable_car subway aircraft wheelchair scooter drone" speed="3.65" length="3.23" shape="268.78,183.37 269.32,184.08 269.08,184.94 268.05,185.96"/>
    </edge>
    <edge id=":1607769770_0" function="internal">
        <lane id=":1607769770_0_0" index="0" disallow="tram rail_urban rail rail_electric rail_fast ship container cable_car subway aircraft wheelchair scooter drone" speed="7.25" length="10.35" shape="244.41,196.65 243.26,194.14 241.56,192.50 239.29,191.71 236.47,191.79"/>
    </edge>
    <edge id=":1607769770_1" function="internal">
        <lane id=":1607769770_1_0" index="0" disallow="tram rail_urban rail rail_electric rail_fast ship container cable_car subway aircraft wheelchair scooter drone" speed="13.89" length="15.20" shape="244.41,196.65 239.95,182.11"/>
    </edge>
    <edge id=":1607769770_2" function="internal">
        <lane id=":1607769770_2_0" index="0" disallow="tram rail_urban rail rail_electric rail_fast ship container cable_car subway aircraft wheelchair scooter drone" speed="7.83" length="4.05" shape="244.41,196.65 243.83,192.64"/>
    </edge>
    <edge id=":1607769770_3" function="internal">
        <lane id=":1607769770_3_0" index="0" disallow="tram rail_urban rail rail_electric rail_fast ship container cable_car subway aircraft wheelchair scooter drone" speed="3.65" length="1.44" shape="244.41,196.65 244.84,195.27"/>
    </edge>
    <edge id=":1607769770_16" function="internal">
        <lane id=":1607769770_16_0" index="0" disallow="tram rail_urban rail rail_electric rail_fast ship container cable_car subway aircraft wheelchair scooter drone" speed="7.83" length="10.53" shape="243.83,192.64 244.72,189.52 247.08,187.30 250.91,185.98"/>
    </edge>
    <edge id=":1607769770_17" function="internal">
        <lane id=":1607769770_17_0" index="0" disallow="tram rail_urban rail rail_electric rail_fast ship container cable_car subway aircraft wheelchair scooter drone" speed="3.65" length="3.23" shape="244.84,195.27 245.49,194.66 246.37,194.81 247.48,195.74"/>
    </edge>
    <edge id=":1607769770_4" function="internal">
        <lane id=":1607769770_4_0" index="0" disallow="tram rail_urban rail rail_electric rail_fast ship container cable_car subway aircraft wheelchair scooter drone" speed="6.30" length="9.04" shape="251.51,189.12 249.13,189.94 247.67,191.32 247.12,193.25 247.48,195.74"/>
    </edge>
    <edge id=":1607769770_5" function="internal">
        <lane id=":1607769770_5_0" index="0" disallow="tram rail_urban rail rail_electric rail_fast ship container cable_car subway aircraft wheelchair scooter drone" speed="13.89" length="15.28" shape="251.51,189.12 236.47,191.79"/>
    </edge>
    <edge id=":1607769770_6" function="internal">
        <lane id=":1607769770_6_0" index="0" disallow="tram rail_urban rail rail_electric rail_fast ship container cable_car subway aircraft wheelchair scooter drone" speed="8.60" length="15.04" shape="251.51,189.12 247.49,189.32 244.22,188.21 241.71,185.81 239.95,182.11"/>
    </edge>
    <edge id=":1607769770_7" function="internal">
        <lane id=":1607769770_7_0" index="0" disallow="tram rail_urban rail rail_electric rail_fast ship container cable_car subway aircraft wheelchair scooter drone" speed="3.65" length="4.67" shape="251.51,189.12 250.18,188.56 249.64,187.85 249.88,186.99 250.91,185.98"/>
    </edge>
    <edge id=":1607769770_8" function="internal">
        <lane id=":1607769770_8_0" index="0" disallow="tram rail_urban rail rail_electric rail_fast ship container cable_car subway aircraft wheelchair scooter drone" speed="7.21" length="10.31" shape="243.00,181.14 244.21,183.69 245.93,185.35 248.16,186.11 250.91,185.98"/>
    </edge>
    <edge id=":1607769770_9" function="internal">
        <lane id=":1607769770_9_0" index="0" disallow="tram rail_urban rail rail_electric rail_fast ship container cable_car subway aircraft wheelchair scooter drone" speed="13.89" length="15.27" shape="243.00,181.14 247.48,195.74"/>
    </edge>
    <edge id=":1607769770_10" function="internal">
        <lane id=":1607769770_10_0" index="0" disallow="tram rail_urban rail rail_electric rail_fast ship container cable_car subway aircraft wheelchair scooter drone" speed="7.76" length="4.28" shape="243.00,181.14 243.68,185.22 243.64,185.36"/>
    </edge>
    <edge id=":1607769770_11" function="internal">
        <lane id=":1607769770_11_0" index="0" disallow="tram rail_urban rail rail_electric rail_fast ship container cable_car subway aircraft wheelchair scooter drone" speed="3.65" length="1.44" shape="243.00,181.14 242.60,182.53"/>
    </edge>
    <edge id=":1607769770_18" function="internal">
[...]
    <connection from=":cluster_10043935988_10043935989_1070361799_0" to="111814614#8" fromLane="1" toLane="1" dir="s" state="M"/>
    <connection from=":cluster_10043935988_10043935989_1070361799_2" to="684917326#1" fromLane="0" toLane="0" via=":cluster_10043935988_10043935989_1070361799_10_0" dir="l" state="m"/>
    <connection from=":cluster_10043935988_10043935989_1070361799_10" to="684917326#1" fromLane="0" toLane="0" dir="l" state="M"/>
    <connection from=":cluster_10043935988_10043935989_1070361799_3" to="684917326#1" fromLane="0" toLane="0" dir="r" state="M"/>
    <connection from=":cluster_10043935988_10043935989_1070361799_4" to="133763768#1" fromLane="0" toLane="0" dir="s" state="M"/>
    <connection from=":cluster_10043935988_10043935989_1070361799_4" to="133763768#1" fromLane="1" toLane="1" dir="s" state="M"/>
    <connection from=":cluster_10043935988_10043935989_1070361799_6" to="111814614#8" fromLane="0" toLane="1" via=":cluster_10043935988_10043935989_1070361799_11_0" dir="t" state="m"/>
    <connection from=":cluster_10043935988_10043935989_1070361799_11" to="111814614#8" fromLane="0" toLane="1" dir="t" state="M"/>
    <connection from=":cluster_10043935988_10043935989_1070361799_7" to="111814614#8" fromLane="0" toLane="0" dir="r" state="M"/>
    <connection from=":cluster_10043935988_10043935989_1070361799_8" to="684917326#1" fromLane="0" toLane="0" dir="s" state="M"/>
    <connection from=":cluster_10043935988_10043935989_1070361799_9" to="133763768#1" fromLane="0" toLane="1" dir="l" state="M"/>
    <connection from=":cluster_10091779114_3870459129_0" to="-147561889#5" fromLane="0" toLane="0" dir="r" state="M"/>
    <connection from=":cluster_10091779114_3870459129_1" to="1322924310#0" fromLane="0" toLane="0" dir="s" state="M"/>
    <connection from=":cluster_10091779114_3870459129_2" to="147561889#7" fromLane="0" toLane="0" dir="l" state="M"/>
    <connection from=":cluster_10091779114_3870459129_3" to="1102829162" fromLane="0" toLane="0" dir="t" state="M"/>
    <connection from=":cluster_10091779114_3870459129_4" to="1102829162" fromLane="0" toLane="0" dir="r" state="M"/>
    <connection from=":cluster_10091779114_3870459129_5" to="-147561889#5" fromLane="0" toLane="0" dir="s" state="M"/>
    <connection from=":cluster_10091779114_3870459129_6" to="1322924310#0" fromLane="0" toLane="0" via=":cluster_10091779114_3870459129_16_0" dir="l" state="m"/>
    <connection from=":cluster_10091779114_3870459129_16" to="1322924310#0" fromLane="0" toLane="0" dir="l" state="M"/>
    <connection from=":cluster_10091779114_3870459129_7" to="147561889#7" fromLane="0" toLane="0" via=":cluster_10091779114_3870459129_17_0" dir="t" state="m"/>
    <connection from=":cluster_10091779114_3870459129_17" to="147561889#7" fromLane="0" toLane="0" dir="t" state="M"/>
    <connection from=":cluster_10091779114_3870459129_8" to="147561889#7" fromLane="0" toLane="0" dir="r" state="M"/>
    <connection from=":cluster_10091779114_3870459129_9" to="1102829162" fromLane="0" toLane="0" dir="s" state="M"/>
    <connection from=":cluster_10091779114_3870459129_10" to="-147561889#5" fromLane="0" toLane="0" dir="l" state="M"/>
    <connection from=":cluster_10091779114_3870459129_11" to="1322924310#0" fromLane="0" toLane="0" dir="t" state="M"/>
    <connection from=":cluster_10091779114_3870459129_12" to="1322924310#0" fromLane="0" toLane="0" dir="r" state="M"/>
    <connection from=":cluster_10091779114_3870459129_13" to="147561889#7" fromLane="0" toLane="0" dir="s" state="M"/>
    <connection from=":cluster_10091779114_3870459129_14" to="1102829162" fromLane="0" toLane="0" via=":cluster_10091779114_3870459129_18_0" dir="l" state="m"/>
    <connection from=":cluster_10091779114_3870459129_18" to="1102829162" fromLane="0" toLane="0" dir="l" state="M"/>
    <connection from=":cluster_10091779114_3870459129_15" to="-147561889#5" fromLane="0" toLane="0" via=":cluster_10091779114_3870459129_19_0" dir="t" state="m"/>
    <connection from=":cluster_10091779114_3870459129_19" to="-147561889#5" fromLane="0" toLane="0" dir="t" state="M"/>
    <connection from=":cluster_10091787220_12171177915_0" to="-1102829164" fromLane="0" toLane="0" dir="r" state="M"/>
    <connection from=":cluster_10091787220_12171177915_1" to="1314994314#0" fromLane="0" toLane="0" dir="s" state="M"/>
    <connection from=":cluster_10091787220_12171177915_2" to="-233262620#1" fromLane="0" toLane="0" dir="t" state="M"/>
    <connection from=":cluster_10091787220_12171177915_3" to="1314994314#0" fromLane="0" toLane="0" dir="r" state="M"/>
    <connection from=":cluster_10091787220_12171177915_4" to="-233262620#1" fromLane="0" toLane="0" dir="s" state="M"/>
    <connection from=":cluster_10091787220_12171177915_5" to="-1102829164" fromLane="0" toLane="0" dir="l" state="M"/>
    <connection from=":cluster_10091787220_12171177915_6" to="1314994314#0" fromLane="0" toLane="0" dir="r" state="M"/>
    <connection from=":cluster_10091787220_12171177915_7" to="-233262620#1" fromLane="0" toLane="0" dir="l" state="M"/>
    <connection from=":cluster_10091787220_12171177915_8" to="-1102829164" fromLane="0" toLane="0" dir="t" state="M"/>
    <connection from=":cluster_10091816498_11896408350_11896408351_11896408352_#2more_0" to="-133889539#3" fromLane="0" toLane="0" dir="r" state="M"/>
    <connection from=":cluster_10091816498_11896408350_11896408351_11896408352_#2more_1" to="111814614#5" fromLane="0" toLane="0" dir="s" state="M"/>
    <connection from=":cluster_10091816498_11896408350_11896408351_11896408352_#2more_1" to="111814614#5" fromLane="1" toLane="1" dir="s" state="M"/>
    <connection from=":cluster_10091816498_11896408350_11896408351_11896408352_#2more_3" to="-264335594#0" fromLane="0" toLane="0" via=":cluster_10091816498_11896408350_11896408351_11896408352_#2more_22_0" dir="L" state="m"/>
    <connection from=":cluster_10091816498_11896408350_11896408351_11896408352_#2more_22" to="-264335594#0" fromLane="0" toLane="0" dir="L" state="M"/>
    <connection from=":cluster_10091816498_11896408350_11896408351_11896408352_#2more_4" to="1316369751" fromLane="0" toLane="0" via=":cluster_10091816498_11896408350_11896408351_11896408352_#2more_23_0" dir="l" state="m"/>
    <connection from=":cluster_10091816498_11896408350_11896408351_11896408352_#2more_23" to="1316369751" fromLane="0" toLane="0" dir="l" state="M"/>
    <connection from=":cluster_10091816498_11896408350_11896408351_11896408352_#2more_5" to="133763768#5" fromLane="0" toLane="1" via=":cluster_10091816498_11896408350_11896408351_11896408352_#2more_24_0" dir="t" state="m"/>
    <connection from=":cluster_10091816498_11896408350_11896408351_11896408352_#2more_24" to="133763768#5" fromLane="0" toLane="1" dir="t" state="M"/>
    <connection from=":cluster_10091816498_11896408350_11896408351_11896408352_#2more_6" to="1316369751" fromLane="0" toLane="0" dir="r" state="M"/>
    <connection from=":cluster_10091816498_11896408350_11896408351_11896408352_#2more_7" to="133763768#5" fromLane="0" toLane="0" dir="R" state="M"/>
    <connection from=":cluster_10091816498_11896408350_11896408351_11896408352_#2more_8" to="-133889539#3" fromLane="0" toLane="0" dir="L" state="M"/>
    <connection from=":cluster_10091816498_11896408350_11896408351_11896408352_#2more_9" to="111814614#5" fromLane="0" toLane="1" dir="l" state="M"/>
    <connection from=":cluster_10091816498_11896408350_11896408351_11896408352_#2more_10" to="-264335594#0" fromLane="0" toLane="0" dir="t" state="M"/>
    <connection from=":cluster_10091816498_11896408350_11896408351_11896408352_#2more_11" to="-264335594#0" fromLane="0" toLane="0" dir="r" state="M"/>
    <connection from=":cluster_10091816498_11896408350_11896408351_11896408352_#2more_12" to="1316369751" fromLane="0" toLane="0" dir="R" state="M"/>
    <connection from=":cluster_10091816498_11896408350_11896408351_11896408352_#2more_13" to="133763768#5" fromLane="0" toLane="0" dir="s" state="M"/>
    <connection from=":cluster_10091816498_11896408350_11896408351_11896408352_#2more_13" to="133763768#5" fromLane="1" toLane="1" dir="s" state="M"/>
    <connection from=":cluster_10091816498_11896408350_11896408351_11896408352_#2more_15" to="-133889539#3" fromLane="0" toLane="0" via=":cluster_10091816498_11896408350_11896408351_11896408352_#2more_25_0" dir="l" state="m"/>
    <connection from=":cluster_10091816498_11896408350_11896408351_11896408352_#2more_25" to="-133889539#3" fromLane="0" toLane="0" dir="l" state="M"/>
    <connection from=":cluster_10091816498_11896408350_11896408351_11896408352_#2more_16" to="111814614#5" fromLane="0" toLane="1" via=":cluster_10091816498_11896408350_11896408351_11896408352_#2more_26_0" dir="t" state="m"/>
    <connection from=":cluster_10091816498_11896408350_11896408351_11896408352_#2more_26" to="111814614#5" fromLane="0" toLane="1" dir="t" state="M"/>
    <connection from=":cluster_10091816498_11896408350_11896408351_11896408352_#2more_17" to="111814614#5" fromLane="0" toLane="0" dir="r" state="M"/>
    <connection from=":cluster_10091816498_11896408350_11896408351_11896408352_#2more_18" to="-264335594#0" fromLane="0" toLane="0" dir="R" state="M"/>
    <connection from=":cluster_10091816498_11896408350_11896408351_11896408352_#2more_19" to="1316369751" fromLane="0" toLane="0" dir="s" state="M"/>
    <connection from=":cluster_10091816498_11896408350_11896408351_11896408352_#2more_20" to="133763768#5" fromLane="0" toLane="1" dir="l" state="M"/>
    <connection from=":cluster_10091816498_11896408350_11896408351_11896408352_#2more_21" to="-133889539#3" fromLane="0" toLane="0" dir="t" state="M"/>
    <connection from=":cluster_10991982215_11882719586_0" to="1110164315#2" fromLane="0" toLane="1" dir="l" state="M"/>
    <connection from=":cluster_10991982215_11882719586_0" to="1110164315#2" fromLane="1" toLane="2" dir="l" state="M"/>
    <connection from=":cluster_10991982215_11882719586_2" to="-389344298#0" fromLane="0" toLane="0" dir="t" state="M"/>
    <connection from=":cluster_10991982215_11882719586_3" to="1110164315#2" fromLane="0" toLane="0" dir="s" state="M"/>
    <connection from=":cluster_10991982215_11882719586_3" to="1110164315#2" fromLane="1" toLane="1" dir="s" state="M"/>
    <connection from=":cluster_10991982215_11882719586_3" to="1110164315#2" fromLane="2" toLane="2" dir="s" state="M"/>
    <connection from=":cluster_10991982215_11882719586_6" to="-389344298#0" fromLane="0" toLane="0" dir="l" state="M"/>
    <connection from=":cluster_12074449275_3240631510_0" to="24231604#3" fromLane="0" toLane="0" dir="s" state="M"/>
    <connection from=":cluster_12074449275_3240631510_0" to="24231604#3" fromLane="1" toLane="1" dir="s" state="M"/>
    <connection from=":cluster_12074449275_3240631510_2" to="317760347#1" fromLane="0" toLane="0" dir="l" state="M"/>
    <connection from=":cluster_12074449275_3240631510_3" to="24231604#3" fromLane="0" toLane="1" dir="l" state="M"/>
    <connection from=":cluster_12074449275_3240631510_4" to="317760347#1" fromLane="0" toLane="0" dir="t" state="M"/>
    <connection from=":cluster_12171177918_12171177919_0" to="559650169#2" fromLane="0" toLane="0" dir="s" state="M"/>
    <connection from=":cluster_12171177918_12171177919_1" to="1314994313#1" fromLane="0" toLane="0" dir="l" state="M"/>
    <connection from=":cluster_1607769953_3870459138_0" to="-147575166#1" fromLane="0" toLane="0" dir="r" state="M"/>
    <connection from=":cluster_1607769953_3870459138_1" to="-147575179#0" fromLane="0" toLane="0" dir="s" state="M"/>
    <connection from=":cluster_1607769953_3870459138_2" to="-383732628" fromLane="0" toLane="0" dir="l" state="M"/>
    <connection from=":cluster_1607769953_3870459138_3" to="147575179#2" fromLane="0" toLane="0" dir="t" state="M"/>
    <connection from=":cluster_1607769953_3870459138_4" to="147575179#2" fromLane="0" toLane="0" dir="r" state="M"/>
    <connection from=":cluster_1607769953_3870459138_5" to="-147575166#1" fromLane="0" toLane="0" dir="s" state="M"/>
    <connection from=":cluster_1607769953_3870459138_6" to="-147575179#0" fromLane="0" toLane="0" via=":cluster_1607769953_3870459138_16_0" dir="l" state="m"/>
    <connection from=":cluster_1607769953_3870459138_16" to="-147575179#0" fromLane="0" toLane="0" dir="l" state="M"/>
    <connection from=":cluster_1607769953_3870459138_7" to="-383732628" fromLane="0" toLane="0" via=":cluster_1607769953_3870459138_17_0" dir="t" state="m"/>
    <connection from=":cluster_1607769953_3870459138_17" to="-383732628" fromLane="0" toLane="0" dir="t" state="M"/>
    <connection from=":cluster_1607769953_3870459138_8" to="-383732628" fromLane="0" toLane="0" dir="r" state="M"/>
    <connection from=":cluster_1607769953_3870459138_9" to="147575179#2" fromLane="0" toLane="0" dir="s" state="M"/>
    <connection from=":cluster_1607769953_3870459138_10" to="-147575166#1" fromLane="0" toLane="0" dir="l" state="M"/>
    <connection from=":cluster_1607769953_3870459138_11" to="-147575179#0" fromLane="0" toLane="0" dir="t" state="M"/>
    <connection from=":cluster_1607769953_3870459138_12" to="-147575179#0" fromLane="0" toLane="0" dir="r" state="M"/>
    <connection from=":cluster_1607769953_3870459138_13" to="-383732628" fromLane="0" toLane="0" dir="s" state="M"/>
    <connection from=":cluster_1607769953_3870459138_14" to="147575179#2" fromLane="0" toLane="0" via=":cluster_1607769953_3870459138_18_0" dir="l" state="m"/>
    <connection from=":cluster_1607769953_3870459138_18" to="147575179#2" fromLane="0" toLane="0" dir="l" state="M"/>
    <connection from=":cluster_1607769953_3870459138_15" to="-147575166#1" fromLane="0" toLane="0" via=":cluster_1607769953_3870459138_19_0" dir="t" state="m"/>
    <connection from=":cluster_1607769953_3870459138_19" to="-147575166#1" fromLane="0" toLane="0" dir="t" state="M"/>
    <connection from=":cluster_1607770180_3274194150_0" to="-545601236" fromLane="0" toLane="0" dir="r" state="M"/>
    <connection from=":cluster_1607770180_3274194150_1" to="-290639790#12" fromLane="0" toLane="0" dir="s" state="M"/>
    <connection from=":cluster_1607770180_3274194150_2" to="-239438608#1" fromLane="0" toLane="0" via=":cluster_1607770180_3274194150_16_0" dir="l" state="m"/>
    <connection from=":cluster_1607770180_3274194150_16" to="-239438608#1" fromLane="0" toLane="0" dir="l" state="M"/>
    <connection from=":cluster_1607770180_3274194150_3" to="290639790#14" fromLane="0" toLane="0" via=":cluster_1607770180_3274194150_17_0" dir="t" state="m"/>
    <connection from=":cluster_1607770180_3274194150_17" to="290639790#14" fromLane="0" toLane="0" dir="t" state="M"/>
    <connection from=":cluster_1607770180_3274194150_4" to="290639790#14" fromLane="0" toLane="0" dir="r" state="M"/>
    <connection from=":cluster_1607770180_3274194150_5" to="-545601236" fromLane="0" toLane="0" dir="s" state="M"/>
    <connection from=":cluster_1607770180_3274194150_6" to="-290639790#12" fromLane="0" toLane="0" dir="l" state="M"/>
    <connection from=":cluster_1607770180_3274194150_7" to="-239438608#1" fromLane="0" toLane="0" dir="t" state="M"/>
    <connection from=":cluster_1607770180_3274194150_8" to="-239438608#1" fromLane="0" toLane="0" dir="r" state="M"/>
    <connection from=":cluster_1607770180_3274194150_9" to="290639790#14" fromLane="0" toLane="0" dir="s" state="M"/>
    <connection from=":cluster_1607770180_3274194150_10" to="-545601236" fromLane="0" toLane="0" via=":cluster_1607770180_3274194150_18_0" dir="l" state="m"/>
    <connection from=":cluster_1607770180_3274194150_18" to="-545601236" fromLane="0" toLane="0" dir="l" state="M"/>
    <connection from=":cluster_1607770180_3274194150_11" to="-290639790#12" fromLane="0" toLane="0" via=":cluster_1607770180_3274194150_19_0" dir="t" state="m"/>
    <connection from=":cluster_1607770180_3274194150_19" to="-290639790#12" fromLane="0" toLane="0" dir="t" state="M"/>
    <connection from=":cluster_1607770180_3274194150_12" to="-290639790#12" fromLane="0" toLane="0" dir="r" state="M"/>
    <connection from=":cluster_1607770180_3274194150_13" to="-239438608#1" fromLane="0" toLane="0" dir="s" state="M"/>
    <connection from=":cluster_1607770180_3274194150_14" to="290639790#14" fromLane="0" toLane="0" dir="l" state="M"/>
    <connection from=":cluster_1607770180_3274194150_15" to="-545601236" fromLane="0" toLane="0" dir="t" state="M"/>
    <connection from=":cluster_306850817_3274194151_0" to="-320774379" fromLane="0" toLane="0" dir="r" state="M"/>
    <connection from=":cluster_306850817_3274194151_1" to="-290639790#10" fromLane="0" toLane="0" dir="s" state="M"/>
    <connection from=":cluster_306850817_3274194151_2" to="147575129#0" fromLane="0" toLane="0" via=":cluster_306850817_3274194151_16_0" dir="l" state="m"/>
    <connection from=":cluster_306850817_3274194151_16" to="147575129#0" fromLane="0" toLane="0" dir="l" state="M"/>
    <connection from=":cluster_306850817_3274194151_3" to="290639790#12" fromLane="0" toLane="0" via=":cluster_306850817_3274194151_17_0" dir="t" state="m"/>
    <connection from=":cluster_306850817_3274194151_17" to="290639790#12" fromLane="0" toLane="0" dir="t" state="M"/>
    <connection from=":cluster_306850817_3274194151_4" to="290639790#12" fromLane="0" toLane="0" dir="r" state="M"/>
    <connection from=":cluster_306850817_3274194151_5" to="-320774379" fromLane="0" toLane="0" dir="L" state="M"/>
    <connection from=":cluster_306850817_3274194151_6" to="-290639790#10" fromLane="0" toLane="0" dir="l" state="M"/>
    <connection from=":cluster_306850817_3274194151_7" to="147575129#0" fromLane="0" toLane="0" dir="t" state="M"/>
    <connection from=":cluster_306850817_3274194151_8" to="147575129#0" fromLane="0" toLane="0" dir="r" state="M"/>
    <connection from=":cluster_306850817_3274194151_9" to="290639790#12" fromLane="0" toLane="0" dir="s" state="M"/>
    <connection from=":cluster_306850817_3274194151_10" to="-320774379" fromLane="0" toLane="0" via=":cluster_306850817_3274194151_18_0" dir="l" state="m"/>
    <connection from=":cluster_306850817_3274194151_18" to="-320774379" fromLane="0" toLane="0" dir="l" state="M"/>
    <connection from=":cluster_306850817_3274194151_11" to="-290639790#10" fromLane="0" toLane="0" via=":cluster_306850817_3274194151_19_0" dir="t" state="m"/>
    <connection from=":cluster_306850817_3274194151_19" to="-290639790#10" fromLane="0" toLane="0" dir="t" state="M"/>
    <connection from=":cluster_306850817_3274194151_12" to="-290639790#10" fromLane="0" toLane="0" dir="r" state="M"/>
    <connection from=":cluster_306850817_3274194151_13" to="147575129#0" fromLane="0" toLane="0" dir="R" state="M"/>
    <connection from=":cluster_306850817_3274194151_14" to="290639790#12" fromLane="0" toLane="0" dir="l" state="M"/>
    <connection from=":cluster_306850817_3274194151_15" to="-320774379" fromLane="0" toLane="0" dir="t" state="M"/>
    <connection from=":cluster_306850818_9847353067_0" to="172853383#2" fromLane="0" toLane="0" dir="s" state="M"/>
    <connection from=":cluster_306850818_9847353067_0" to="172853383#2" fromLane="1" toLane="1" dir="s" state="M"/>
    <connection from=":cluster_306850818_9847353067_0" to="172853383#2" fromLane="2" toLane="2" dir="s" state="M"/>
    <connection from=":cluster_306850818_9847353067_0" to="172853383#2" fromLane="3" toLane="3" dir="s" state="M"/>
    <connection from=":cluster_306850818_9847353067_4" to="-290639790#15" fromLane="0" toLane="0" dir="l" state="M"/>
    <connection from=":cluster_306850818_9847353067_5" to="172853383#2" fromLane="0" toLane="2" dir="l" state="M"/>
    <connection from=":cluster_306850818_9847353067_5" to="172853383#2" fromLane="1" toLane="3" dir="l" state="M"/>
    <connection from=":cluster_306850818_9847353067_7" to="-290639790#15" fromLane="0" toLane="0" dir="t" state="M"/>

</net>
